%NPROCS=4
# opt=(calcfc,ts,noeigentest,maxcycle=1000,cartesian) b3lyp 6-31g(d) freq

 ./3/glo_1w_beta_boat3_b3lyp_631Gd_iopt.out

0  1
C           0.11009         1.40819         1.02473
C           0.76758        -0.90638         0.02700
O          -1.60164        -0.07578         0.14675
C          -0.72260        -1.23670         0.15819
C          -1.06034         1.23757         0.05276
C           1.21471         0.35743         0.79252
H          -0.90211        -1.71955         1.12818
H           1.57117         0.03864         1.77819
H           0.94228        -0.72175        -1.04355
H          -1.88019         1.89528         0.38511
H           0.53068         2.41539         0.87758
C          -0.72893         1.65451        -1.39452
H          -1.53163         1.29335        -2.05193
H           0.20872         1.20983        -1.73355
O          -1.05515        -2.06136        -0.90409
H          -1.98955        -2.33258        -0.77096
O          -0.54206         3.06355        -1.49069
H          -1.41478         3.48334        -1.43969
O           1.47441        -2.04470         0.46239
H           2.36566        -2.00821         0.04744
O           2.30470         0.91328         0.02366
H           2.70904         1.62600         0.54416
O          -0.30991         1.21819         2.37408
H          -1.12528         1.72466         2.51414
O          -3.74335        -1.85875        -0.17272
H          -3.93232        -2.16903         0.72601
H          -3.31640        -0.98818        -0.04505
O           3.84955        -1.28834        -0.76374
H           3.77014        -1.36879        -1.72633
H           3.49917        -0.39476        -0.55896

