%NPROCS=10
# opt=(modredundant,MaxCycle=1000) freq B3LYP/6-31G(d)

boat3_Beta_B3LYP_6-31G_d

0 1
 C                 -0.99357689    0.98965196    0.49716997
 C                  1.29988811    0.22712996   -0.45042603
 O                 -0.14268789   -1.29963604    1.08226997
 C                  1.25261311   -0.91284004    0.56667897
 C                 -1.14204089   -0.47294904    0.41512197
 C                  0.40178911    1.37652796   -0.01851903
 H                  1.82592811   -0.67133604    1.46845297
 H                  0.93437311    1.94211896    0.75825897
 H                  1.03818411   -0.12838204   -1.44983303
 H                 -2.02987389   -0.69378004    1.02607197
 H                 -1.77791689    1.51511296   -0.05810703
 C                 -1.52464989   -1.04563804   -0.96465403
 H                 -1.54965789   -2.14101704   -0.93740003
 H                 -0.82790589   -0.76921304   -1.75430003
 O                  1.83380611   -2.07634704   -0.01261603
 H                  1.33403041   -2.82059126    0.37107347
 O                 -2.80678189   -0.56368804   -1.36311503
 H                 -3.46688789   -1.20067604   -1.03482603
 O                  2.65705211    0.69123696   -0.60073303
 H                  2.59100711    1.48318096   -1.17150903
 O                  0.30336711    2.29531996   -1.12298303
 H                 -0.17951589    3.07685496   -0.79376503
 O                 -1.08345289    1.45363496    1.85472997
 H                 -1.89944689    1.09286196    2.24495697
 O                  0.52132020   -3.87293974    1.67171362
 H                  1.48132020   -3.87293974    1.67171362
 H                  0.20086562   -2.96800391    1.67171362
 O                  1.74260323    1.33923780   -2.67230589
 H                  1.90521936    0.73619337   -3.40134184
 H                  0.88794448    1.76048019   -2.78940955

D 2 4 3 5 F
D 2 6 1 5 F

