%NPROCS=4
# opt=(MaxCycle=1000) freq B3LYP/6-31G(d)

 ./chairs/1/glo_2w_alpha_ircr_chair_B3LYP_631Gd.out

0  1
C           0.08863        -1.05875        -1.62460
O           0.11246        -1.07200         0.79241
H           2.64385        -1.07814         2.02095
H           4.10950        -0.86488        -1.50618
O           3.51518        -0.34858        -0.94159
H           3.08792        -1.25711         0.53550
O           2.64139        -1.72157         1.28537
H           1.04464        -1.40567         0.96624
C          -1.40223        -0.74889        -1.47681
C          -1.63421         0.63021        -0.84833
C          -1.36271         0.74837         0.66008
C           0.05069         0.31429         1.07849
H          -1.86780        -1.52635        -0.85562
H          -2.08715         0.12508         1.19477
H           0.78522         0.87153         0.46452
H          -0.98572         1.34809        -1.37777
O          -1.92332        -0.77661        -2.80078
O          -3.00557         0.93712        -1.09393
O          -1.67498         2.09512         1.05275
H          -3.20464         1.72474        -0.55922
H          -2.77555        -0.30849        -2.75007
H          -1.04815         2.68333         0.59690
C           0.34875         0.61001         2.55419
O           1.74131         0.46411         2.87663
H          -0.18009        -0.11417         3.17977
H           0.00001         1.61571         2.81699
H           2.21285         1.22047         2.49272
H           0.36859        -2.12483        -1.56978
O           0.90911        -0.20265        -1.92268
H           2.66436        -0.31156        -1.43454

