%chk=D:\Dropbox\My Dropbox\Sajat gyujtes\Hehre MOLMOD\01\BH3.chk
#p opt freq b3lyp/6-31g(d,p) guess=(local,save) geom=connectivity

BH3

0 1
 B                  5.23880468   -0.54674165    0.00000000
 H                  6.41880468   -0.54674165    0.00000000
 H                  4.64880468    0.47516832    0.00000000
 H                  4.64880468   -1.56865163    0.00000000

 1 2 1.0 3 1.0 4 1.0
 2
 3
 4

