%chk=D:\Dropbox\My Dropbox\Sajat gyujtes\Hehre MOLMOD\01\NH3.chk
#p opt freq b3lyp/6-31g(d,p) guess=(local,save) geom=connectivity

NH3

0 1
 N                  5.58846196   -0.82684524   -0.14633904
 H                  6.52933062   -0.88730221    0.18699429
 H                  5.06567036   -1.61143292    0.18699429
 H                  5.58846196   -0.82684524   -1.14633904

 1 2 1.0 3 1.0 4 1.0
 2
 3
 4

