# opt freq hf/6-31g 

Title Card Required

0 1
 C                 -1.91428569    1.22285712    0.00000000
 H                 -1.55763126    0.21404712    0.00000000
 H                 -1.55761285    1.72725531    0.87365150
 H                 -1.55761285    1.72725531   -0.87365150
 H                 -2.98428569    1.22287030    0.00000000

