%NPROCS=4
# opt=(MaxCycle=1000) freq B3LYP/6-31G(d)

 ./chairs/2/glo_1w_beta_ircf_chair2_B3LYP_631Gd.out

0  1
C          -1.74154         0.47804        -0.58234
O          -1.04577         0.82225         0.93210
C          -1.60010        -1.03452        -0.72293
C          -0.12065        -1.44875        -0.62702
C           0.47183        -1.11786         0.76296
C           0.33330         0.35366         1.18519
H          -1.96008        -1.26550        -1.73637
H           1.54535        -1.32146         0.73900
H           0.42601         0.36442         2.27462
H          -0.05106        -2.53367        -0.75259
O          -2.33626        -1.77200         0.24872
O           0.59509        -0.83946        -1.70485
O          -0.06107        -1.99317         1.74587
H           0.15739         0.03322        -1.87088
H          -3.24764        -1.43964         0.27030
H          -1.02866        -1.99097         1.63212
C           1.39335         1.32474         0.61772
O           2.67052         0.91781         1.04650
H           1.19602         2.32638         1.01695
H           1.32483         1.39351        -0.47330
H           3.04992         0.35786         0.33067
O          -1.16239         1.17687        -1.49238
H          -1.12086         2.60450        -0.81386
H          -2.75307         0.78601        -0.24692
H          -1.05109         1.84607         0.84250
O          -1.07960         3.13740         0.04544
H          -1.89673         3.65644         0.09728
O           3.31951        -0.61401        -1.16696
H           2.40453        -0.76052        -1.50002
H           3.77074        -0.11636        -1.86468

