%NPROCS=4
# opt=(MaxCycle=1000) freq B3LYP/6-31G(d)

 ./chairs/2/glo_2w_beta_ircr_chair2_B3LYP_631Gd.out

0  1
C           0.49952        -1.22395         0.24813
O           0.47707        -0.34951        -0.98397
C          -0.96147        -1.53808         0.61511
C          -1.73972        -0.21973         0.79562
C          -1.71452         0.62738        -0.49660
C          -0.27530         0.90627        -0.95430
H          -0.96271        -2.08995         1.56552
H          -2.18359         1.59097        -0.28560
H          -0.34648         1.18294        -2.01040
H          -2.78400        -0.45282         1.02655
O          -1.61638        -2.29687        -0.40454
O          -1.19425         0.50993         1.89990
O          -2.48082         0.02936        -1.52797
H          -0.26038         0.23057         2.00781
H          -1.05822        -3.05608        -0.63651
H          -2.21982        -0.90880        -1.56134
C           0.47813         2.02203        -0.15584
O          -0.37699         2.88929         0.56069
H           1.02838         2.65728        -0.85954
H           1.21262         1.54932         0.50435
H          -0.77593         2.33940         1.26492
O           1.15523        -0.68715         1.31730
H           2.17352        -0.59991         1.14541
H           1.00719        -2.11282        -0.15927
H           1.85332        -0.14736        -1.45415
O           3.52345        -0.42065         0.73139
H           4.03779        -1.23071         0.86237
O           2.84840        -0.07321        -1.58564
H           3.03347         0.83343        -1.87086
H           3.39018        -0.29013        -0.27133

