%NPROCS=12
# opt=(modredundant,MaxCycle=1000) freq B3LYP/6-31G(d)

 ./opt_IRC/b3lyp/boats/6/glo_1w_beta_ircr_boat6_B3LYP_631Gd_opt.out

0  1
C          -0.67650         0.84920         0.52000
C           1.48160        -0.51550         0.34780
C           0.81230         0.86020         0.14270
C           0.50740        -1.57490         0.88000
H           0.95520        -2.57000         0.76910
H           2.29700        -0.40790         1.07330
H          -0.81320         0.75350         1.60370
H           0.87960         1.11510        -0.92380
C          -0.78520        -1.51830         0.03830
H          -1.54350        -2.18260         0.46640
O          -1.36880        -0.22810        -0.12270
C          -1.34470         2.16930         0.10100
H          -0.84310         3.02760         0.55870
H          -1.33120         2.28050        -0.98830
O          -2.71530         2.18810         0.51040
H          -3.05230         3.07860         0.31300
O          -0.47520        -1.96340        -1.28200
O           0.22760        -1.38340         2.26890
H           1.07210        -1.43400         2.75120
O           2.11520        -0.93390        -0.87760
H           1.39850        -1.31880        -1.43350
O           1.53440         1.87810         0.83820
H           2.43470         1.89250         0.43310
O          -3.10680        -1.23920        -2.02060
H          -1.35650        -2.02250        -1.71770
H          -4.04160        -1.01090        -2.15200
H          -2.81920        -0.55120        -1.38120
O           3.84480         1.32470        -0.69210
H           4.70610         1.36050        -1.13960
H           3.50420         0.44700        -0.97090

D 1 3 2 4 F
D 1 11 9 4 F

