%NPROCS=12
# opt=(modredundant,MaxCycle=1000) freq B3LYP/6-31G(d)

 ./opt_IRC/b3lyp/boats/6/glo_1w_alpha_ircf_boat6_B3LYP_631Gd_opt.out

0  1
C          -0.45380         0.83320         0.25110
C           1.52210        -0.77770         0.10340
C           1.05810         0.69730         0.04060
C           0.37050        -1.75590         0.35950
H           0.68640        -2.78850         0.17240
H           2.22860        -0.88090         0.93640
H          -0.72320         0.61630         1.29200
H           1.28190         1.07520        -0.96610
C          -0.80800        -1.41340        -0.57390
O          -1.19840        -0.05030        -0.59360
C          -0.93870         2.26260        -0.02940
H          -0.44680         2.98550         0.62860
H          -0.75680         2.53680        -1.07370
O          -2.35550         2.34470         0.18830
H          -2.58910         3.28490         0.08640
O          -0.04570        -1.70040         1.73200
H          -0.95280        -2.07450         1.73040
O           2.28130        -1.11490        -1.07360
H           1.71330        -0.98410        -1.85450
O           1.79970         1.52330         0.93510
H           2.74820         1.42500         0.68050
O          -3.95010        -0.14480        -0.45590
H          -2.70760        -1.65020        -0.46110
H          -3.17090         0.45560        -0.43080
H          -4.56430         0.33610         0.12250
O           4.25870         0.81560        -0.21580
H           5.21920         0.67790        -0.16530
H           3.94940        -0.00960        -0.64360
O          -1.93440        -2.15610        -0.12250
H          -0.58700        -1.71290        -1.60330

