%NPROCS=12
# opt=(modredundant,MaxCycle=1000) freq B3LYP/6-31G(d)

 ./opt_IRC/b3lyp/boats/6/glo_2w_beta_ircf_boat6_B3LYP_631Gd_opt.out

0  1
C          -0.83690         0.83170         0.09560
C          -1.49630        -1.58870         0.59280
C          -1.59550        -0.11480         1.03860
C          -0.66490        -1.76540        -0.68550
H          -0.41670        -2.82580        -0.81730
H          -2.50620        -1.97300         0.40600
H          -1.33920         0.91610        -0.87550
H          -1.15180        -0.02630         2.03920
C           0.64960        -0.96750        -0.53810
H           1.19850        -0.97720        -1.48620
O           0.50610         0.38970        -0.12600
C          -0.77690         2.25020         0.68750
H          -1.78200         2.64990         0.85480
H          -0.22410         2.25230         1.63270
O          -0.08690         3.13620        -0.20420
H          -0.21100         4.03180         0.15780
O           1.43910        -1.60190         0.46510
O          -1.39750        -1.34870        -1.84160
H          -2.15590        -1.95190        -1.93870
O          -0.97570        -2.38240         1.66830
H           0.00040        -2.25830         1.66430
O          -2.96350         0.28210         1.17330
H          -3.36410        -0.32130         1.82710
O           2.62720         2.03820        -0.68950
H           3.50090         0.53020        -0.40290
H           1.76650         1.62560        -0.43950
H           2.28940         2.90470        -0.98110
O           3.80260        -0.38870        -0.19640
H           2.35510        -1.27590         0.28700
H           4.76640        -0.26580        -0.21100

