%NPROCS=12
# opt=(modredundant,MaxCycle=1000) freq B3LYP/6-31G(d)

 ./opt_IRC/b3lyp/boats/6/glo_2w_alpha_ircr_boat6_B3LYP_631Gd_opt.out

0  1
C          -0.34840         1.04000        -0.31020
C          -2.22180        -0.49960         0.53840
C          -1.68420         0.94840         0.44790
C          -1.29480        -1.49940        -0.14930
H          -1.57540        -2.53080         0.09360
H          -3.20720        -0.55150         0.06060
H          -0.48500         0.86620        -1.38410
H          -1.53700         1.33440         1.46380
C           0.16360        -1.25530         0.28280
O           0.61270         0.09420         0.17980
C           0.25040         2.45290        -0.16770
H          -0.45690         3.21600        -0.50710
H           0.52770         2.65210         0.87270
O           1.44260         2.57760        -0.95390
H           1.67540         3.52410        -0.93990
O          -1.41790        -1.36730        -1.57780
H          -0.60460        -1.79440        -1.92710
O          -2.43700        -0.88780         1.90450
H          -1.73050        -0.52540         2.46560
O          -2.65430         1.80960        -0.16020
H          -2.92620         1.40090        -1.00410
O           3.41250        -1.98110         0.64710
H           1.83480        -2.15100        -0.09850
H           3.60280        -1.06540         0.32500
H           4.31360        -2.30660         0.80920
O           0.97950        -2.04350        -0.57720
H           0.31360        -1.58450         1.31690
O           3.29790         0.54760        -0.32720
H           3.23680         1.38240        -0.83210
H           2.33030         0.40740        -0.20160

