%NPROCS=12
# opt=(TS,CalcFC,NoEigenTest,MaxCycle=500,cartesian) Freq B3LYP 6-31G(d)

boat3_Alpha_B3LYP_6-31G_d

0 1
6           0       -1.017980   -0.217709    1.108745
6           0       -0.493599    1.506688   -0.745816
8           0        0.528275   -0.696542   -0.778329
6           0        0.899789    0.891975   -0.640577
6           0       -0.530439   -1.237072    0.066504
6           0       -1.349881    1.165522    0.483577
1           0       -1.143295    1.913443    1.260639
1           0       -0.980481    1.062485   -1.625922
1           0       -0.091910   -2.078406    0.620728
1           0       -1.935962   -0.633833    1.540123
6           0       -1.646108   -1.765315   -0.850435
1           0       -1.193265   -2.370123   -1.651440
1           0       -2.184627   -0.935143   -1.314095
8           0       -2.623423   -2.497513   -0.120546
1           0       -2.202647   -3.306957    0.213241
8           0       -0.345954    2.906081   -0.924727
1           0       -1.245689    3.257577   -1.027464
8           0       -2.702508    1.275879    0.023296
1           0       -3.289262    1.178048    0.790241
8           0       -0.096162   -0.086899    2.173710
1           0        0.658695    0.423051    1.793749
1           0        1.453080    0.980425   -1.588614
8           0        1.581165    1.147986    0.447260
8           0        2.629388   -1.864486   -0.507993
1           0        1.583870   -1.337664   -0.670434
1           0        2.991531   -2.126103   -1.371110
8           0        3.793496    0.094682    0.310320
1           0        2.857891    0.677808    0.392837
1           0        3.281186   -1.019573   -0.087841
1           0        4.155959    0.016927    1.209457

