%NPROCS=18
# opt=(TS,CalcFC,NoEigenTest,MaxCycle=500,cartesian) Freq B3LYP 6-31G(d)

boat3_Alpha_B3LYP_6-31G_d

0 1
6           0       -0.434629   -0.262959    0.933064
6           0        0.639848    1.470374   -0.661711
8           0        1.146123   -0.967809   -0.849696
6           0        1.852559    0.560690   -0.550409
6           0       -0.113083   -1.270952   -0.182912
6           0       -0.426036    1.200860    0.417522
1           0       -0.201556    1.831431    1.289582
1           0        0.177490    1.243142   -1.634527
1           0        0.018239   -2.253670    0.289912
1           0       -1.442223   -0.489284    1.292828
6           0       -1.205522   -1.366120   -1.261015
1           0       -0.898530   -2.077649   -2.038012
1           0       -1.373339   -0.394620   -1.723304
8           0       -2.477477   -1.740379   -0.712622
1           0       -2.396439   -2.620084   -0.305885
8           0        1.097882    2.814146   -0.645692
1           0        0.306823    3.363890   -0.770459
8           0       -1.654457    1.587600   -0.192516
1           0       -2.400210    1.273082    0.364265
8           0        0.415219   -0.438151    2.048329
1           0        1.282475   -0.050550    1.798443
1           0        2.459143    0.563822   -1.469073
8           0        2.508142    0.505524    0.576760
8           0        3.067520   -1.802238    0.296260
1           0        3.072186   -0.687236    0.547104
1           0        2.073759   -1.600195   -0.370634
1           0        3.837795   -2.011710   -0.254643
8           0       -3.899590    0.242192    0.780458
1           0       -4.464255    0.783517    0.207243
1           0       -3.557065   -0.472329    0.199682

