# OPT FREQ B3LYP/gen gfinput

 BH3.LOG

0  1
B           0.00000         0.00000         0.00000
H           0.00000         1.19232         0.00000
H           1.03258        -0.59616         0.00000
H          -1.03258        -0.59616         0.00000

B 0		
STO 1S	6	4.69331084
STO 2S	3	1.290297
STO 2P	3	1.61877252
STO 2S	1	0.84654366
STO 2P	1	0.79052543
****		
H  0		
STO 1S	3	1.173874877
STO 1S	1	0.718591289
****		

