# b3lyp/6-31g(d) irc=(calcfc,reverse)

glo_1w_alpha_ts_boat1_B3LYP_631Gd

0 1
  1  -0.271159     1.301110     1.167529
  6  -0.087249     1.225523     0.084896
  6   0.667332    -1.236552     0.311723
  6  -1.561064    -0.954669    -0.909433
  6  -0.844797    -1.531258     0.307975
  8  -1.255157     0.826779    -0.616277
  6   1.029337     0.193775    -0.151879
  1  -0.950462    -2.623114     0.229053
  1   1.214265     0.145861    -1.236377
  6   0.270128     2.612351    -0.465356
  1  -0.582264     3.287271    -0.312990
  1   0.449208     2.522975    -1.545720
  1   1.013585    -1.318343     1.357815
  8   1.435903     3.111419     0.213683
  1   1.734181     3.915589    -0.237046
  8  -1.487354    -1.055499     1.498297
  1  -1.181591    -1.604765     2.235686
  8   1.258741    -2.222835    -0.507844
  1   2.236194    -2.083942    -0.499146
  8   2.232048     0.570041     0.538127
  1   2.331188     1.539880     0.434193
  1  -0.965384    -1.065572    -1.824329
  8  -2.829552    -1.044176    -1.027642
  8  -3.370561     0.701043     0.527919
  1  -3.364598    -0.220601    -0.131248
  1  -2.363126     0.986844     0.050906
  1  -3.086925     0.315138     1.379340
  8   3.909684    -1.450120    -0.225192
  1   3.534199    -0.589840     0.074648
  1   4.260544    -1.856719     0.581564
 
