%NPROCS=4
# opt=(MaxCycle=1000) freq B3LYP/6-31G(d)

 ./boats/6/glo_1w_beta_ts_boat6_B3LYP_631Gd_r.out

0  1
C           0.87181         0.74519        -0.55771
C          -1.42652        -0.38071        -0.55400
C          -0.57426         0.82245        -0.05687
C          -0.58118        -1.58490        -1.02332
H          -1.22132        -2.47883        -0.99030
H          -2.04571        -0.02777        -1.38634
H           0.89662         0.76983        -1.65065
H          -0.54103         0.74522         1.04273
C           0.56600        -1.76151        -0.03934
H           1.26850        -2.54780        -0.33393
O           1.46487        -0.51243        -0.13949
C           1.70220         1.91504        -0.03344
H           1.22181         2.83432        -0.39178
H           1.66722         1.93232         1.07125
O           3.03230         1.77631        -0.50806
H           3.51572         2.58283        -0.27477
O           0.07324        -1.91444         1.23855
O          -0.00702        -1.40478        -2.30986
H          -0.73036        -1.38128        -2.95521
O          -2.32861        -0.82627         0.47035
H          -1.74691        -1.26869         1.12486
O          -1.12087         2.06202        -0.45270
H          -1.97033         2.15346         0.03964
O           2.03667        -0.86674         2.18860
H           0.83070        -1.64730         1.86186
H           1.81162        -0.13363         2.78007
H           2.04721        -0.49781         1.25688
O          -3.41607         1.65184         1.03909
H          -4.24196         1.72942         0.53835
H          -3.19451         0.69233         1.00735

