%NPROCS=4
# opt=(MaxCycle=1000) freq B3LYP/6-31G(d)

 ./boats/6/glo_2w_beta_ts_boat6_B3LYP_631Gd_r.out

0  1
C          -1.12401         0.76725        -0.16141
C          -0.44833        -1.50024         0.84403
C          -1.36679        -0.25557         0.96948
C          -0.22561        -1.82441        -0.64701
H           0.31567        -2.77643        -0.72827
H          -0.97715        -2.33856         1.32441
H          -1.72906         0.48407        -1.02513
H          -1.19525         0.20423         1.95338
C           0.77149        -0.79391        -1.22592
H           0.59677        -0.53118        -2.27913
O           0.23771         0.71862        -0.59975
C          -1.47694         2.18847         0.23291
H          -2.47179         2.16524         0.70680
H          -0.75012         2.54808         0.97768
O          -1.46776         2.98154        -0.94174
H          -1.62087         3.90211        -0.68167
O           1.96792        -0.96453        -0.79685
O          -1.43622        -1.93947        -1.37305
H          -2.17958        -1.68792        -0.79597
O           0.79719        -1.31113         1.50826
H           1.48961        -1.35507         0.78921
O          -2.74397        -0.64329         0.83003
H          -2.98848        -1.17710         1.60338
O           1.71859         1.26262         1.30076
H           2.63179         1.17159         0.88693
H           1.54294         0.42439         1.77672
H           0.89910         1.01034         0.18863
O           3.75149         0.80420        -0.19914
H           3.17170         0.14248        -0.67140
H           4.49993         0.28629         0.13272

