%NPROCS=4
# opt=(MaxCycle=1000) freq B3LYP/6-31G(d)

 ./boats/6/glo_1w_alpha_ts_boat6_B3LYP_631Gd_r.out

0  1
C          -0.45033         0.88263         0.13561
C           1.49033        -0.75378         0.06909
C           1.05747         0.74258        -0.04935
C           0.36978        -1.77980         0.34696
H           0.78812        -2.77039         0.09278
H           2.15663        -0.82334         0.93182
H          -0.75463         0.48151         1.10786
H           1.26676         1.05160        -1.08924
C          -0.95360        -1.67904        -0.44341
O          -0.97977         0.06557        -0.92642
C          -0.96973         2.29674         0.00164
H          -0.39399         2.94281         0.67403
H          -0.83249         2.64355        -1.03301
O          -2.36013         2.28359         0.35981
H          -2.70490         3.18363         0.26316
O           0.05260        -1.70227         1.71813
H          -0.91447        -1.88749         1.73470
O           2.30248        -1.14818        -1.05534
H           1.79082        -0.98991        -1.86565
O           1.72895         1.58173         0.85874
H           2.67563         1.54630         0.59332
O          -3.43265        -0.06719        -0.74602
H          -3.23278        -0.91302        -0.26503
H          -2.01796         0.15825        -0.98687
H          -3.54064         0.62748        -0.07066
O           4.15297         0.86822        -0.36555
H           4.82484         0.48053         0.21524
H           3.71107         0.09756        -0.78397
O          -1.99326        -1.90506         0.23591
H          -0.90204        -1.99052        -1.49873

