%NPROCS=4
# opt=(MaxCycle=1000) freq B3LYP/6-31G(d)

 ./boats/6/glo_2w_beta_ts_boat6_B3LYP_631Gd.out

0  1
C          -1.11963         0.73596        -0.19680
C          -0.44379        -1.50224         0.84274
C          -1.36588        -0.25933         0.95909
C          -0.21007        -1.80364        -0.64947
H           0.36977        -2.72791        -0.75982
H          -0.96458        -2.34729         1.31865
H          -1.77950         0.47180        -1.02921
H          -1.18715         0.21670         1.93349
C           0.68759        -0.65492        -1.19447
H           0.60945        -0.56270        -2.28396
O           0.24439         0.64977        -0.64568
C          -1.44867         2.16572         0.21489
H          -2.43581         2.13319         0.70450
H          -0.71154         2.51578         0.95440
O          -1.46400         2.98005        -0.94464
H          -1.64209         3.89115        -0.66771
O           1.98186        -0.93068        -0.77467
O          -1.42395        -1.94848        -1.37010
H          -2.16591        -1.68184        -0.79733
O           0.79896        -1.30401         1.51175
H           1.49876        -1.33507         0.81363
O          -2.74444        -0.64850         0.83333
H          -2.98055        -1.18577         1.60716
O           1.78228         1.26718         1.33184
H           3.07411         1.06797         0.58537
H           1.51350         0.44579         1.78861
H           1.20102         1.23788         0.53412
O           3.66012         0.78106        -0.18444
H           2.65141        -0.16168        -0.76379
H           4.39877         0.28370         0.19644

