%NPROCS=4
# opt=(MaxCycle=1000) freq B3LYP/6-31G(d)

 ./boats/6/glo_1w_alpha_ts_boat6_B3LYP_631Gd.out

0  1
C          -0.44828         0.85846         0.13364
C           1.49256        -0.75489         0.07146
C           1.06019         0.74215        -0.04568
C           0.35782        -1.77390         0.34037
H           0.75168        -2.76953         0.07959
H           2.15705        -0.83117         0.93496
H          -0.74241         0.48989         1.12137
H           1.26726         1.05065        -1.08624
C          -0.93199        -1.52916        -0.48810
O          -0.97167        -0.01027        -0.89696
C          -0.97384         2.27785        -0.00882
H          -0.38832         2.91703         0.66234
H          -0.83939         2.63012        -1.04238
O          -2.36273         2.27953         0.35779
H          -2.69784         3.18399         0.26821
O           0.04754        -1.70352         1.71684
H          -0.91313        -1.88776         1.75870
O           2.30209        -1.14933        -1.05501
H           1.78905        -0.98092        -1.86264
O           1.73189         1.58284         0.86077
H           2.67816         1.55083         0.59479
O          -3.39910        -0.08665        -0.73157
H          -2.80225        -1.25547        -0.09438
H          -2.49453         0.16662        -1.05947
H          -3.54946         0.61600        -0.07447
O           4.15387         0.86800        -0.36608
H           4.82290         0.47709         0.21580
H           3.70741         0.09920        -0.78294
O          -2.03642        -1.86499         0.22890
H          -0.88975        -1.98395        -1.48584

