%NPROCS=4
# opt=(MaxCycle=1000) freq B3LYP/6-31G(d)

 ./boats/6/glo_2w_alpha_ts_boat6_B3LYP_631Gd.out

0  1
C          -0.11139         1.02611        -0.20155
C          -2.16713        -0.24304         0.61594
C          -1.65937         1.03424        -0.09426
C          -1.45749        -1.49519         0.06489
H          -1.91221        -2.38815         0.52327
H          -3.23520        -0.32843         0.39359
H           0.17199         0.58731        -1.16579
H          -1.98680         1.88429         0.51715
C           0.05640        -1.58678         0.35595
O           0.39407         0.19456         0.85475
C           0.46065         2.42592        -0.11545
H          -0.13537         3.07162        -0.77323
H           0.37540         2.79299         0.91746
O           1.83247         2.42083        -0.54596
H           2.15461         3.33507        -0.53370
O          -1.62032        -1.52147        -1.34756
H          -0.73273        -1.79280        -1.67691
O          -2.05938        -0.15932         2.02775
H          -1.12584         0.04597         2.20961
O          -2.23601         1.21258        -1.37485
H          -2.14336         0.34145        -1.80979
O           3.37198        -1.76970        -0.35834
H           2.40378        -1.96724        -0.48048
H           3.22096        -0.37726         0.41383
H           3.72483        -1.69063        -1.25697
O           0.77741        -1.85193        -0.63695
H           0.34127        -1.91488         1.36388
O           2.85580         0.41256         0.91903
H           2.87676         1.18422         0.31757
H           1.45152         0.25039         0.92249

