%NPROCS=4
# opt=(MaxCycle=1000) freq B3LYP/6-31G(d)

 ./boats/6/glo_2w_alpha_ts_boat6_B3LYP_631Gd_r.out

0  1
C          -0.12818         0.98375        -0.20855
C          -2.18304        -0.24718         0.60952
C          -1.67566         1.02958        -0.10202
C          -1.43145        -1.48137         0.07031
H          -1.84142        -2.39233         0.52765
H          -3.24954        -0.34802         0.38888
H           0.14268         0.58778        -1.19293
H          -1.99322         1.88363         0.50892
C           0.08643        -1.38365         0.41950
O           0.37050         0.07261         0.79661
C           0.46731         2.37844        -0.08739
H          -0.13892         3.03005        -0.73007
H           0.39050         2.73598         0.94980
O           1.83481         2.39602        -0.53490
H           2.14674         3.31379        -0.51278
O          -1.59700        -1.52414        -1.34562
H          -0.72930        -1.82481        -1.68622
O          -2.06964        -0.15592         2.02335
H          -1.13171         0.03683         2.19546
O          -2.24925         1.21217        -1.38316
H          -2.14923         0.34505        -1.82299
O           3.27813        -1.70938        -0.32336
H           1.84388        -1.85556        -0.46782
H           3.29694        -0.80045         0.14166
H           3.66527        -1.58646        -1.20271
O           0.82396        -1.81424        -0.63551
H           0.32525        -1.88286         1.36460
O           2.91713         0.39400         0.88619
H           2.86296         1.18734         0.31568
H           1.96468         0.23824         1.06671

