%nprocshared=10
# opt b3lyp/6-31g(d)

Title Card Required

0 1
 C                  0.81061300    1.18711600    0.21042100
 O                  0.07901800    1.03840100   -0.98378400
 C                  1.37901400   -0.14809700    0.69260300
 C                  0.24805600   -1.15033300    0.91751300
 C                 -0.63918400   -1.29538700   -0.33164800
 C                 -0.94947900    0.03555800   -1.07540600
 H                  1.92500700    0.02500200    1.63613800
 H                 -1.58194000   -1.76492700   -0.03464400
 H                 -1.01151500   -0.22015100   -2.13754600
 H                  0.66572700   -2.14100900    1.13393200
 O                  2.24880800   -0.69140100   -0.29281900
 O                 -0.60305400   -0.72360100    1.99260200
 O                 -0.00438500   -2.21600600   -1.21816800
 H                 -0.06428400   -0.56658500    2.78424500
 H                  2.67849500    0.08088400   -0.70643000
 H                  0.90704700   -1.88485800   -1.33073800
 C                 -2.28755600    0.66079600   -0.64575400
 O                 -2.28878000    1.16490300    0.67847400
 H                 -3.09168000   -0.07928500   -0.80731200
 H                 -2.49478400    1.51862200   -1.29323400
 H                 -1.97326200    0.46468000    1.28065500
 H                  0.18847400    1.65708400    0.98265700
 O                  1.92848800    1.98598800   -0.10661000
 H                  1.60316700    2.70634900   -0.67166500


