%nprocshared=10
# opt=modredundant b3lyp/6-31G(d)

Glo_A_ch2_GS_b3lyp_631Gd

0 1
 C                 -0.68770400   -1.21450000    0.20717800
 O                 -0.12648300   -0.96855800   -1.07134400
 C                 -1.24916700    0.07064600    0.83359900
 C                 -0.19247900    1.18808000    0.86990900
 C                  0.48864100    1.33861100   -0.50370100
 C                  0.94578400   -0.00759800   -1.11533900
 H                 -1.58921300   -0.16003500    1.85811100
 H                  1.36345100    1.98842300   -0.38663400
 H                  1.07347200    0.19827900   -2.18407100
 H                 -0.69412200    2.13781500    1.09252900
 O                 -2.33820400    0.54421200    0.04728400
 O                  0.81723600    0.92705000    1.85331800
 O                 -0.39783500    2.00676800   -1.38729300
 H                  0.39234900    0.83623400    2.72094400
 H                 -2.77119300   -0.26373300   -0.28992400
 H                 -1.25890400    1.55388000   -1.30016200
 C                  2.28374100   -0.59040400   -0.63153900
 O                  2.32171900   -1.07586600    0.69721500
 H                  3.06238600    0.17297000   -0.81009900
 H                  2.51951200   -1.44811800   -1.27007700
 H                  2.02762600   -0.35187800    1.28350100
 H                  0.05683000   -1.68278800    0.86048200
 O                 -1.80034300   -2.05383600   -0.00070200
 H                 -1.52381000   -2.72822900   -0.64306600

D 4 5 6 2 S 19 -5.502912


