# b3lyp/6-31g(d) opt freq

glo_1w_beta_ircr_boat1_B3LYP_631Gd

0 1
  1  -0.016246     1.629846     1.419235
  6  -0.489021     1.138924     0.557119
  6   1.122457    -0.755674     0.059458
  6  -1.359009    -1.581086     0.001504
  6   0.088847    -1.786125    -0.414915
  8  -1.261544     0.061538     1.053829
  6   0.676118     0.653583    -0.342547
  1  -1.625733    -2.070572     0.950773
  1   0.088689    -1.750524    -1.515339
  1   0.362808     0.626203    -1.396937
  6  -1.347647     2.172083    -0.171889
  1  -2.144424     2.543511     0.490284
  1  -1.810203     1.706345    -1.053971
  8  -2.213409    -1.333260    -0.870965
  1   1.207567    -0.813605     1.156053
  8  -0.465061     3.234056    -0.545789
  1  -0.919690     3.817831    -1.170482
  8   0.450449    -3.072540     0.052635
  1   1.403040    -3.138580    -0.141182
  8   2.321020    -1.177235    -0.564032
  1   3.082149    -0.721534    -0.133218
  8   1.756243     1.582310    -0.206244
  1   1.389386     2.449946    -0.458047
  8  -3.674474    -0.065372     0.615080
  1  -3.362455    -0.698336    -0.108658
  1  -2.267876     0.229063     1.016206
  8   4.144524     0.505464     0.625792
  1   3.449091     1.141266     0.352158
  1   4.084128     0.481183     1.592765
  1  -4.129941     0.660345     0.163823
 
