# b3lyp/6-31g(d) opt freq

glo_1w_alpha_ircr_boat1_B3LYP_631Gd

0 1
  1  -0.255897     1.317897     1.180263
  6  -0.061200     1.251977     0.102038
  6   0.683403    -1.224209     0.318160
  6  -1.563416    -1.010060    -0.922398
  6  -0.828239    -1.524088     0.317949
  8  -1.224058     0.869783    -0.608952
  6   1.044762     0.206651    -0.144483
  1  -0.918784    -2.619078     0.253300
  1   1.228951     0.160541    -1.229073
  6   0.292690     2.630138    -0.454584
  1  -0.560914     3.303966    -0.303305
  1   0.467872     2.535142    -1.535412
  1   1.029578    -1.304452     1.364290
  8   1.456383     3.125405     0.221180
  1   1.756648     3.931072    -0.225566
  8  -1.467898    -1.043181     1.505018
  1  -1.164087    -1.593892     2.242361
  8   1.277348    -2.209728    -0.500150
  1   2.254950    -2.072257    -0.489434
  8   2.247753     0.582989     0.545291
  1   2.351509     1.552095     0.439028
  1  -0.927452    -1.031603    -1.822391
  8  -2.795485    -1.057563    -1.039328
  8  -3.378242     0.731555     0.564546
  1  -3.476239    -0.076692    -0.012547
  1  -2.092024     1.029272    -0.069561
  1  -3.078219     0.329019     1.398399
  8   3.928157    -1.438161    -0.217244
  1   3.554641    -0.577992     0.083657
  1   4.280399    -1.845774     0.588417
 
