# b3lyp/6-31g(d) opt freq

glo_2w_alpha_ircf_boat1_B3LYP_631Gd

0 1
  1   1.382381    -0.973666    -1.282628
  6   1.280227    -0.836963    -0.194349
  6   0.232104     1.410778    -0.307367
  6  -0.956867    -0.202189     1.296027
  6  -0.878505     1.224689     0.726433
  8  -0.026061    -1.239816     0.198016
  6   1.506863     0.660998     0.068413
  1  -0.629637     1.874476     1.584427
  1   1.737479     0.833405     1.135007
  6   2.315866    -1.711463     0.515315
  1   2.168075    -2.764678     0.239133
  1   2.173228    -1.620784     1.602529
  1  -0.135260     1.008105    -1.264971
  8   3.618739    -1.252017     0.127182
  1   4.283057    -1.701408     0.669671
  8  -2.133963     1.585577     0.183595
  1  -1.996572     2.431567    -0.273447
  8   0.454332     2.809854    -0.414421
  1   1.303669     2.904185    -0.880460
  8   2.550887     1.186123    -0.740736
  1   3.327656     0.621750    -0.572441
  1  -0.326973    -0.344751     2.174346
  8  -2.133083    -0.750349     1.444653
  8  -1.492430    -1.513914    -1.780191
  1  -1.466297    -2.432970    -2.083996
  1  -2.801891    -1.165264    -1.178977
  1  -0.867449    -1.464367    -0.979910
  8  -3.549026    -0.910531    -0.543963
  1  -4.032449    -1.729599    -0.356822
  1  -2.773383    -0.624777     0.630842
 
