# b3lyp/6-31g(d) opt freq

glo_2w_beta_ircr_boat1_B3LYP_631Gd

0 1
  1   0.413302     1.630799     1.534670
  6   0.063378     1.154510     0.609456
  6   1.854709    -0.560480     0.259473
  6  -0.549671    -1.416215    -0.214448
  6   0.957009    -1.693382    -0.241660
  8  -0.625713    -0.041547     0.984496
  6   1.322893     0.792732    -0.200071
  1  -1.089742    -2.067175     0.493350
  1   1.194674    -1.839061    -1.305312
  1   1.083151     0.738257    -1.272170
  6  -0.833244     2.135026    -0.144644
  1  -1.706856     2.406524     0.463198
  1  -1.182007     1.666547    -1.074561
  8  -1.093010    -1.030986    -1.282007
  1   1.865325    -0.586896     1.360051
  8  -0.008984     3.277916    -0.407512
  1  -0.490717     3.876935    -0.996261
  8   1.169601    -2.888154     0.494463
  1   2.119534    -3.079887     0.433456
  8   3.157711    -0.808715    -0.252829
  1   3.642767     0.029107    -0.153176
  8   2.347327     1.753731     0.027796
  1   1.977902     2.607303    -0.260696
  8  -3.067095     0.230485     1.236232
  1  -2.559409    -1.081191    -1.149436
  1  -1.638559     0.114341     1.151324
  1  -3.413908    -0.268568     1.991326
  8  -3.540504    -1.016008    -0.855845
  1  -3.394757    -0.254526     0.392252
  1  -3.984587    -0.494305    -1.540673
 
