# b3lyp/6-31g(d) opt freq

glo_1w_beta_ircf_boat1_B3LYP_631Gd

0 1
  1  -0.039494     1.585851     1.433044
  6  -0.492492     1.110351     0.549980
  6   1.123991    -0.754805     0.056178
  6  -1.325158    -1.478627     0.083713
  6   0.082047    -1.782997    -0.412863
  8  -1.262154     0.011644     1.014673
  6   0.679334     0.655937    -0.344283
  1  -1.619245    -2.073214     0.951906
  1   0.063176    -1.751241    -1.513322
  1   0.368967     0.628671    -1.400616
  6  -1.346568     2.167199    -0.170993
  1  -2.139895     2.538751     0.495285
  1  -1.812633     1.709821    -1.055798
  8  -2.232363    -1.322073    -0.875484
  1   1.202745    -0.814276     1.152836
  8  -0.464576     3.233646    -0.545370
  1  -0.921377     3.818875    -1.167019
  8   0.446969    -3.071571     0.050884
  1   1.401138    -3.128782    -0.140648
  8   2.320821    -1.178958    -0.564512
  1   3.081583    -0.721394    -0.134703
  8   1.759443     1.583084    -0.207545
  1   1.387209     2.451422    -0.449507
  8  -3.666482    -0.064604     0.625005
  1  -3.064755    -0.974920    -0.411320
  1  -2.749570     0.191803     0.961366
  8   4.144130     0.505387     0.625555
  1   3.447884     1.140646     0.351242
  1   4.082732     0.481571     1.592487
  1  -4.059914     0.718746     0.215117
 
