%NPROCS=4
# opt=(calcfc,ts,noeigentest,maxcycle=1000,cartesian) freq b3lyp/6-31g(d)

boat6_Alpha_B3LYP_6-31G_d

0 1
   6           0        0.997423   -0.908815   -0.298594
   6           0        0.913615    1.343536    0.891188
   6           0        1.632176   -0.024322    0.796400
   6           0        0.518017    1.836377   -0.513727
   1           0        0.102184    2.851598   -0.445048
   1           0        1.611357    2.060575    1.364494
   1           0        1.582542   -0.800398   -1.217311
   1           0        1.506339   -0.510153    1.775682
   6           0       -0.638549    0.957408   -1.024846
   1           0       -0.607984    0.859702   -2.120794
   8           0       -0.356918   -0.509988   -0.572058
   6           0        0.979778   -2.372775    0.124779
   1           0        2.003359   -2.636590    0.434432
   1           0        0.323652   -2.482083    1.003836
   8           0        0.535111   -3.170166   -0.954580
   1           0        0.439960   -4.110760   -0.642343
   8           0       -1.789948    1.345869   -0.486632
   8           0        1.588591    1.779167   -1.439296
   1           0        2.279263    2.399998   -1.152472
   8           0       -0.256755    1.232661    1.714763
   1           0       -1.016089    1.452323    1.110997
   8           0        3.014993    0.089973    0.476929
   1           0        3.468130    0.433093    1.249354
   8           0       -2.040093   -1.127135    1.096675
   1           0       -2.948158   -0.716372    0.611146
   1           0       -1.748135   -0.524505    1.808995
   1           0       -1.284051   -0.921077    0.333551
   8           0       -3.792336   -0.071166   -0.283942
   1           0       -2.997420    0.541816   -0.610290
   1           0       -4.350871    0.560659    0.229699

