%NPROCS=4
# opt=(calcfc,ts,noeigentest,maxcycle=1000,cartesian) freq b3lyp/6-31g(d)
geom=connectivity

boat6_Alpha_B3LYP_6-31G_d

0 1
 C                 -0.39252578   -0.15316839    1.16678497
 C                  1.35866822    0.64404061   -0.47131503
 C                  0.28714422    1.06220161    0.54832497
 C                  1.38020622   -0.88850339   -0.73498503
 H                  1.95195583   -1.05991400   -1.62302826
 H                  2.32890274    1.01600234   -0.21599279
 H                  0.22005211   -0.67344780    1.87315432
 H                 -0.39091556    1.75365297    0.09331952
 C                  0.17662140   -1.50773971   -1.01435281
 O                 -1.06422696   -1.02350007    0.16641275
 C                 -1.56989694    0.35906845    2.01708526
 H                 -1.20108974    1.01183405    2.78048445
 H                 -2.25555145    0.89243688    1.39234850
 O                 -2.23971959   -0.75049039    2.62133421
 H                 -2.83541721   -0.43231818    3.30361771
 O                  2.03757022   -1.60284137    0.31501203
 H                  2.88757388   -1.92139053    0.00256972
 O                  1.02549643    1.25452289   -1.72079810
 H                  0.67495551    0.59022169   -2.31864840
 O                  0.92616396    1.78943139    1.60079379
 H                  0.76872420    2.72902305    1.48255573
 O                 -0.99451782   -3.20609107    0.69275608
 H                 -0.06465302   -3.35280326   -0.06244002
 H                 -1.36556406   -2.07974445    0.64967640
 H                 -0.51523400   -3.33336871    1.78549916
 O                  0.86760704    3.26197967   -0.27410517
 H                  0.91777615    4.22054128   -0.25852607
 H                  0.98560329    2.94949614   -1.17412235
 O                  0.45554829   -2.80804123   -0.99658398
 H                 -0.21578086   -1.24020341   -1.97317751

 1 3 1.0 7 1.0 10 1.0 11 1.0
 2 3 1.0 4 1.0 6 1.0 18 1.0
 3 8 1.0 20 1.0
 4 5 1.0 9 2.0 16 1.0
 5
 6
 7
 8
 9 29 2.0 30 1.0
 10
 11 12 1.0 13 1.0 14 1.0
 12
 13
 14 15 1.0
 15
 16 17 1.0
 17
 18 19 1.0
 19
 20 21 1.0
 21
 22 25 1.0
 23
 24
 25
 26 27 1.0 28 1.0
 27
 28
 29
 30

