%NPROCS=4
# opt=(calcfc,ts,noeigentest,maxcycle=500,cartesian) freq b3lyp/6-31g(d)

boat1_Alpha_B3LYP_6-31G_d

0 1
   1           0        1.305547    1.095013    1.012994
   6           0        1.306363    0.715580   -0.020667
   6           0       -0.140548   -1.314469    0.345731
   6           0       -1.293850    0.225880   -1.396142
   6           0       -1.031353   -1.208051   -0.894517
   8           0        0.178883    1.243492   -0.704740
   6           0        1.275125   -0.814720    0.103418
   1           0       -0.547843   -1.768647   -1.716340
   1           0        1.661976   -1.287493   -0.814612
   6           0        2.582961    1.186110   -0.728999
   1           0        2.707813    2.273227   -0.617764
   1           0        2.490713    0.963347   -1.801808
   1           0       -0.603708   -0.744400    1.170801
   8           0        3.703003    0.491721   -0.157342
   1           0        4.437566    0.526801   -0.786253
   8           0       -2.301776   -1.779452   -0.600613
   1           0       -2.092722   -2.642075   -0.202123
   8           0       -0.115516   -2.705006    0.674460
   1           0        0.610648   -2.789585    1.323911
   8           0        2.043123   -1.241713    1.228645
   1           0        2.961684   -0.974267    1.029997
   1           0       -0.959171    0.438917   -2.413404
   8           0       -2.328322    0.847409   -1.013642
   8           0       -0.842542    2.510811    1.094533
   1           0       -0.980617    3.468507    0.986660
   1           0       -1.872634    1.818330    1.346140
   1           0       -0.396866    2.030532    0.157440
   8           0       -2.679552    0.977429    1.366398
   1           0       -3.554059    1.361600    1.538359
   1           0       -2.618922    0.730684    0.231468

