%NPROCS=18
# opt=(TS,CalcFC,NoEigenTest,MaxCycle=500,cartesian) Freq B3LYP 6-31G(d)

 glo_2w_beta_ts_boat1_B3LYP_631Gd.log

0  1
  1           0        0.426461    1.580720    1.543217
  6           0        0.088481    1.124274    0.603970
  6           0        1.886662   -0.574723    0.257869
  6           0       -0.521631   -1.382567   -0.166046
  6           0        0.980740   -1.701123   -0.240961
  8           0       -0.618411   -0.077667    0.957071
  6           0        1.354657    0.778144   -0.200922
  1           0       -1.047727   -2.080527    0.502298
  1           0        1.200112   -1.848430   -1.307907
  1           0        1.117298    0.724578   -1.273990
  6           0       -0.801698    2.118894   -0.144276
  1           0       -1.674045    2.391146    0.464996
  1           0       -1.152395    1.654319   -1.075373
  8           0       -1.089809   -1.046090   -1.277408
  1           0        1.895477   -0.600627    1.358686
  8           0        0.022180    3.263124   -0.406697
  1           0       -0.460730    3.861979   -0.994640
  8           0        1.197645   -2.900184    0.492034
  1           0        2.148613   -3.086994    0.429106
  8           0        3.188900   -0.823728   -0.253054
  1           0        3.673645    0.014360   -0.154713
  8           0        2.378212    1.740004    0.028069
  1           0        2.006740    2.593863   -0.257227
  8           0       -3.010607    0.200251    1.210093
  1           0       -2.364177   -1.072846   -1.137942
  1           0       -1.785529    0.086248    1.151943
  1           0       -3.344252   -0.285543    1.981090
  8           0       -3.477257   -1.014899   -0.829854
  1           0       -3.356846   -0.357352    0.247864
  1           0       -3.932732   -0.478781   -1.497233

