%NPROCS=12
# opt=(TS,CalcFC,NoEigenTest,MaxCycle=500,cartesian) Freq B3LYP 6-31G(d)

boat1_Alpha_B3LYP_6-31G_d

0 1
1           0       -0.308605    1.327715    1.111832
6           0       -0.071208    1.210752    0.044112
6           0        0.646532   -1.251619    0.389947
6           0       -1.549442   -1.007862   -0.868460
6           0       -0.871839   -1.506217    0.405346
8           0       -1.205988    0.799376   -0.704958
6           0        1.040973    0.159185   -0.107820
1           0       -1.008547   -2.600003    0.405199
1           0        1.258517    0.071140   -1.183451
6           0        0.343795    2.573290   -0.522972
1           0       -0.519959    3.249803   -0.499132
1           0        0.651233    2.447114   -1.570878
1           0        1.017690   -1.328119    1.430482
8           0        1.423741    3.101464    0.270106
1           0        1.780739    3.879970   -0.187457
8           0       -1.513343   -0.923114    1.551268
1           0       -1.236843   -1.424605    2.333126
8           0        1.192695   -2.269054   -0.424946
1           0        2.163506   -2.104325   -0.510498
8           0        2.228744    0.545001    0.603004
1           0        2.307986    1.520113    0.529837
1           0       -0.931395   -1.197567   -1.756564
8           0       -2.814744   -1.075397   -1.013165
8           0       -3.348667    0.790892    0.394642
1           0       -3.350036   -0.177488   -0.199224
1           0       -2.332255    1.026134   -0.086247
1           0       -3.078640    0.457517    1.275503
8           0        3.860823   -1.434660   -0.367324
1           0        3.518221   -0.594410    0.004004
1           0        4.249441   -1.894222    0.393541

