%NPROCS=4
# opt=(MaxCycle=1000) freq B3LYP/6-31G(d)

 ./chairs/2/glo_1w_alpha_ircf_chair2_B3LYP_631Gd.out

0  1
C          -1.42311        -0.05712        -0.89272
O          -1.03954         0.79254         0.34699
C          -0.96996        -1.48468        -0.58391
C           0.50250        -1.53808        -0.12245
C           0.80935        -0.56314         1.03367
C           0.34097         0.87259         0.76248
H          -1.07539        -2.09277        -1.50073
H           1.88803        -0.55666         1.21839
H           0.32094         1.37902         1.73332
H           0.71092        -2.54806         0.25140
O          -1.80211        -2.00243         0.44244
O           1.35718        -1.23964        -1.24483
O           0.20063        -1.07243         2.21083
H           1.23733        -1.93898        -1.90750
H          -2.66071        -1.55521         0.29672
H          -0.71485        -1.30946         1.96779
C           1.19621         1.73610        -0.18602
O           2.46256         1.99849         0.37814
H           0.67773         2.69443        -0.31900
H           1.27834         1.26797        -1.17616
H           3.07106         1.28190         0.09245
H          -0.88897         0.38181        -1.74453
O          -2.77945         0.00465        -0.99148
H          -3.02537         0.97897        -0.82754
H          -1.97137         1.94831         0.20695
O          -2.80468         2.30975        -0.21049
H          -3.43583         2.41910         0.51680
O           3.88875        -0.13510        -0.70698
H           4.25836         0.20518        -1.53562
H           3.09790        -0.65023        -0.97059

