# b3lyp/6-31g(d) irc=(calcfc,reverse)

glo_2w_alpha_ts_boat1_B3LYP_631Gd

0 1
  1   1.409710    -0.945045    -1.287276
  6   1.278419    -0.819495    -0.200613
  6   0.224877     1.431746    -0.301349
  6  -1.002276    -0.164502     1.338014
  6  -0.887290     1.246376     0.732170
  8  -0.025020    -1.236305     0.164010
  6   1.498981     0.681929     0.072847
  1  -0.635309     1.901744     1.586111
  1   1.730659     0.853441     1.138746
  6   2.309269    -1.689881     0.518649
  1   2.162681    -2.743629     0.243659
  1   2.164380    -1.597475     1.605430
  1  -0.140993     1.031863    -1.260858
  8   3.612629    -1.230010     0.131789
  1   4.276328    -1.676343     0.677486
  8  -2.141379     1.609298     0.185468
  1  -2.001528     2.457351    -0.266871
  8   0.448328     2.832191    -0.410551
  1   1.298551     2.924550    -0.875408
  8   2.544594     1.208222    -0.736601
  1   3.320989     0.644156    -0.566100
  1  -0.290135    -0.332384     2.156335
  8  -2.133036    -0.721159     1.450511
  8  -1.511929    -1.481267    -1.747410
  1  -1.506154    -2.401252    -2.054439
  1  -2.622614    -1.201264    -1.218819
  1  -0.786822    -1.407106    -0.871241
  8  -3.531557    -0.891965    -0.541183
  1  -4.038603    -1.692960    -0.327352
  1  -2.974064    -0.644725     0.394027
 
