# b3lyp/6-31g(d) irc=(calcfc,reverse)

glo_2w_beta_ts_boat1_B3LYP_631Gd

0 1
  1   0.426460     1.580720     1.543217
  6   0.088480     1.124274     0.603970
  6   1.886662    -0.574722     0.257869
  6  -0.521630    -1.382567    -0.166046
  6   0.980741    -1.701123    -0.240961
  8  -0.618411    -0.077667     0.957071
  6   1.354657     0.778145    -0.200922
  1  -1.047726    -2.080527     0.502298
  1   1.200113    -1.848429    -1.307907
  1   1.117298     0.724579    -1.273990
  6  -0.801699     2.118894    -0.144276
  1  -1.674046     2.391145     0.464996
  1  -1.152396     1.654319    -1.075373
  8  -1.089809    -1.046090    -1.277408
  1   1.895477    -0.600626     1.358686
  8   0.022179     3.263124    -0.406697
  1  -0.460732     3.861979    -0.994640
  8   1.197646    -2.900183     0.492034
  1   2.148614    -3.086993     0.429106
  8   3.188900    -0.823727    -0.253054
  1   3.673645     0.014362    -0.154713
  8   2.378211     1.740005     0.028069
  1   2.006739     2.593864    -0.257227
  8  -3.010607     0.200250     1.210093
  1  -2.364177    -1.072847    -1.137942
  1  -1.785529     0.086247     1.151943
  1  -3.344252    -0.285544     1.981090
  8  -3.477257    -1.014900    -0.829854
  1  -3.356846    -0.357353     0.247864
  1  -3.932732    -0.478783    -1.497233
 
