%NPROCS=4
# opt=(MaxCycle=1000) freq B3LYP/6-31G(d)

 ./boats/2/glo_2w_alpha_ts_boat2_B3LYP_631Gd.out

0  1
C           0.03903        -1.60990         0.31954
O           0.39319         0.17236         0.85310
H           2.91210         1.20294         0.44270
H           3.73386        -2.42237        -0.03923
O           3.35421        -1.66322        -0.50566
H           3.21644        -0.35825         0.43712
O           2.85842         0.39434         0.99363
H           1.44583         0.23684         0.94195
C          -1.65207         1.04888        -0.06008
C          -0.10871         1.02028        -0.18927
H          -1.96114         1.89249         0.56940
H           0.14076         0.56888        -1.15991
O          -2.24050         1.25499        -1.33186
H          -2.17291         0.38727        -1.77790
C           0.51696         2.40405        -0.10983
O           1.89483         2.43434        -0.51333
H           0.50295         2.76011         0.92452
H          -0.07472         3.09541        -0.72348
H           1.92991         2.28133        -1.47107
H           0.33487        -1.95293         1.31976
O           0.74544        -1.85927        -0.68614
H           2.39027        -1.87817        -0.62893
C          -1.47733        -1.49049         0.05248
H          -1.93990        -2.38368         0.50277
C          -2.16516        -0.23721         0.63360
H          -3.23598        -0.30862         0.41938
O          -1.66108        -1.49060        -1.35755
H          -0.78314        -1.76627        -1.70747
O          -2.04417        -0.18118         2.04529
H          -1.10959         0.02416         2.22153

