%NPROCS=4
# opt=(MaxCycle=1000) freq B3LYP/6-31G(d)

 ./boats/2/glo_1w_beta_ts_boat2_B3LYP_631Gd.out

0  1
C           1.62704        -0.57379        -1.07391
O           0.94595         1.00397        -0.84971
H           3.33356         1.96552         0.51368
O           2.87373        -0.53543        -0.60735
H           2.90711         0.02523         0.23953
O           2.65170         1.37110         0.86395
H           1.88037         1.46637         0.22992
C          -0.66688         0.29831         0.83335
C          -0.43015         1.03041        -0.50223
C          -0.92547         2.48804        -0.44460
O          -2.34414         2.54810        -0.18632
O          -2.07115         0.08503         1.05726
H           1.59539        -0.64839        -2.16297
H          -2.50446         0.93644         0.83510
H          -0.26720         0.92506         1.64726
H          -1.00480         0.50523        -1.27560
H          -0.67488         3.00528        -1.37858
H          -0.45382         3.02890         0.38209
H          -2.80154         2.31445        -1.01033
O          -2.82490        -2.26516        -0.22780
H          -2.73280        -1.40572         0.24445
H          -3.01002        -2.91300         0.46816
C           0.05958        -1.06983         0.90927
H          -0.69141        -1.80744         1.23058
C           0.62870        -1.55166        -0.44128
H           1.18997        -2.47912        -0.24181
O           1.15540        -1.05605         1.81268
H           0.84516        -0.72257         2.66838
O          -0.38150        -1.74622        -1.41040
H          -1.17609        -2.16077        -1.00244

