%NPROCS=4
# opt=(MaxCycle=1000) freq B3LYP/6-31G(d)

 ./boats/2/glo_1w_alpha_ts_boat2_B3LYP_631Gd_r.out

0  1
C          -1.50708        -1.39381        -0.36008
O          -1.14106         0.32392        -0.85430
H          -4.04525         0.59795        -1.50996
O          -3.56692         0.69706        -0.67232
H          -2.10455         0.68825        -0.85437
C           1.06228         0.36246        -0.08854
C          -0.30671         1.03534         0.06426
H           1.39969         0.54382        -1.11295
H          -0.68010         0.93130         1.08905
O           2.05324         1.01131         0.74402
H           1.85690         0.77525         1.66764
C          -0.30885         2.51048        -0.33835
O           0.40228         3.30696         0.58461
H          -1.34146         2.87728        -0.34444
H           0.08286         2.60157        -1.36612
H           1.28662         2.90826         0.66293
H          -1.45208        -1.71955        -1.40815
O          -2.60983        -1.37708         0.25968
H          -3.50985        -0.22517        -0.26927
O           4.01167        -0.57631        -0.62733
H           4.42490        -0.06406        -1.33823
H           3.60223         0.09082        -0.03998
C           1.06153        -1.18174         0.11790
H           1.71461        -1.38843         0.98183
C          -0.30055        -1.75955         0.50384
H          -0.21249        -2.85572         0.40971
O          -0.57252        -1.38108         1.83956
H          -1.55431        -1.36169         1.87240
O           1.52569        -1.86016        -1.02985
H           2.47197        -1.61245        -1.11188

