%NPROCS=4
# opt=(MaxCycle=1000) freq B3LYP/6-31G(d)

 ./boats/2/glo_2w_alpha_ts_boat2_B3LYP_631Gd_r.out

0  1
C           0.07513        -1.38808         0.39154
O           0.37263         0.03865         0.78254
H           2.90278         1.19351         0.41817
H           3.67511        -2.31289         0.04255
O           3.25356        -1.60388        -0.46583
H           3.28173        -0.77200         0.12177
O           2.92023         0.37755         0.95859
H           1.95181         0.22900         1.10910
C          -1.66935         1.04321        -0.06830
C          -0.12687         0.97456        -0.20006
H          -1.96629         1.89179         0.55997
H           0.10750         0.57290        -1.19340
O          -2.25444         1.25440        -1.34048
H          -2.18001         0.39071        -1.79209
C           0.52516         2.34964        -0.07603
O           1.89587         2.40537        -0.50002
H           0.52321         2.68791         0.96467
H          -0.07963         3.05068        -0.66578
H           1.92180         2.25576        -1.45868
H           0.32054        -1.91404         1.32149
O           0.79030        -1.81154        -0.68742
H           1.81095        -1.80182        -0.55664
C          -1.44761        -1.47448         0.05875
H          -1.85833        -2.38916         0.50748
C          -2.18263        -0.24167         0.62641
H          -3.25193        -0.32953         0.41411
O          -1.63379        -1.49337        -1.35519
H          -0.77579        -1.79890        -1.71598
O          -2.05576        -0.17680         2.04058
H          -1.11728         0.01283         2.21038

