# b3lyp/6-31g(d) irc=(calcfc,reverse)

glo_1w_beta_ts_boat4_B3LYP_631Gd

0 1
  8  -1.724449     0.292502     0.437791
  6   0.654943     0.389879    -0.153565
  6  -0.254552    -1.814687     0.823217
  6   0.982536    -1.042918     0.322860
  6  -1.537809    -1.466813     0.085797
  6  -0.515492     1.030384     0.619045
  1   1.632084    -0.933457     1.206185
  1  -0.272003     1.016815     1.690121
  1   0.387449     0.330776    -1.218500
  1  -2.453889    -1.694535     0.660132
  6  -0.806869     2.478888     0.186270
  1  -0.999002     2.517305    -0.891496
  1  -1.707830     2.835339     0.702250
  1  -0.055357    -2.880216     0.633964
  8  -1.565266    -1.613902    -1.190564
  8   0.295735     3.369949     0.399679
  1   0.424102     3.461882     1.357988
  8  -0.373226    -1.546280     2.218243
  1  -1.209133    -1.926340     2.531825
  8   1.597030    -1.813429    -0.681889
  1   2.473841    -1.411544    -0.882988
  8   1.848431     1.171419     0.022729
  1   1.602772     2.114375    -0.068270
  8  -2.935989     0.279998    -1.630398
  1  -2.345958     0.519137    -0.597721
  1  -2.408310    -0.767097    -1.619416
  1  -2.553330     0.780463    -2.369337
  8   3.922442    -0.308353    -1.010520
  1   4.493382    -0.488123    -0.248210
  1   3.336968     0.421588    -0.708827
 
