# b3lyp/6-31g(d) irc=(calcfc,reverse)

glo_1w_beta_ts_boat5_B3LYP_631Gd

0 1
  8   1.191087     0.712588    -0.496268
  6   0.525743    -1.054629     1.034392
  6  -1.272754     0.603924     0.010278
  6  -0.922900    -0.813692     0.552981
  6  -0.189819     1.633399     0.287280
  6   1.607333    -0.509900     0.092266
  1  -1.580004    -0.972566     1.422357
  1   2.508284    -0.359137     0.708925
  1   0.687509    -2.141161     1.125507
  1  -1.334596     0.531081    -1.084105
  6   1.931456    -1.486290    -1.052495
  1   2.673816    -1.016173    -1.713877
  1   1.026839    -1.666232    -1.637153
  1   0.225117     1.623617     1.301774
  8  -0.209157     2.735454    -0.362710
  8   2.368614    -2.760476    -0.590057
  1   3.231682    -2.642359    -0.162957
  8  -2.479260     1.076603     0.571439
  1  -3.195881     0.556142     0.143618
  8  -1.286365    -1.745397    -0.489094
  1  -1.123720    -2.647511    -0.166873
  8   0.733971    -0.427720     2.302038
  1   0.044332    -0.733972     2.912915
  8   2.174254     2.881255    -0.484326
  1   1.916088     1.698633    -0.519095
  1   2.417267     3.160261    -1.382478
  1   1.016240     3.084702    -0.379198
  8  -3.926029    -0.829575    -0.880207
  1  -3.087154    -1.338039    -0.893477
  1  -4.037093    -0.516027    -1.790602
 
