# b3lyp/6-31g(d) irc=(calcfc,forward)

glo_1w_alpha_ts_boat5_B3LYP_631Gd

0 1
  8  -1.211537    -0.437781    -1.214627
  6  -0.440320     0.483158     1.025715
  6   1.310981    -0.555587    -0.528714
  6   1.012818     0.503665     0.569436
  6   0.172306    -1.472231    -0.889712
  6  -1.388743     0.573876    -0.175225
  1   1.639095     0.308625     1.449380
  1  -2.405083     0.373465     0.189969
  1  -0.601246     1.371763     1.643179
  1   1.714084    -0.021151    -1.389324
  6  -1.390314     1.923020    -0.902661
  1  -2.209325     1.939838    -1.629579
  1  -0.466795     2.060077    -1.468793
  8  -1.523592     3.013572     0.003934
  1  -2.452580     3.037624     0.289238
  8   2.344768    -1.487892    -0.175109
  1   1.913376    -2.214869     0.326220
  8   1.377494     1.794937     0.058651
  1   1.021130     2.483792     0.642872
  8  -0.712132    -0.619756     1.894066
  1  -1.646049    -0.555616     2.171582
  1   0.381196    -1.956335    -1.854179
  8  -0.157723    -2.371360     0.048428
  1  -1.370893    -2.494927     0.288921
  8  -2.430005    -2.087112     0.008800
  1  -2.700913    -1.586425     0.788395
  1  -2.113631    -1.236251    -0.796732
  8   3.290447     0.757870    -0.106082
  1   2.920678     1.376638     0.533484
  1   2.894828    -0.121481     0.077827
 
