%NPROCS=4
# opt=(calcfc,ts,noeigentest,maxcycle=1000,cartesian) b3lyp 6-31g(d) freq

boat4_Beta_B3LYP_6-31G_d

0 1
  8           0       -0.613403    0.203288   -0.989185
  6           0        1.239847   -0.817676    0.238795
  6           0        1.119934    1.706025    0.118407
  6           0        1.969944    0.461962   -0.166266
  6           0       -0.394625    1.420181    0.183563
  6           0        0.017966   -1.047154   -0.668647
  1           0        2.151890    0.433845   -1.252670
  1           0        0.401571   -1.457814   -1.614573
  1           0        0.922557   -0.726843    1.284708
  1           0       -0.968572    2.169454   -0.387064
  6           0       -0.968813   -2.043315   -0.043075
  1           0       -1.337497   -1.641962    0.903777
  1           0       -1.832189   -2.207711   -0.706288
  1           0        1.398125    2.067949    1.116960
  8           0       -0.860688    1.031853    1.328147
  8           0       -0.330437   -3.285383    0.267007
  1           0       -0.134671   -3.733104   -0.572080
  8           0        1.423211    2.666656   -0.886212
  1           0        1.172893    3.540270   -0.550765
  8           0        3.191306    0.573880    0.544340
  1           0        3.587249   -0.314447    0.512129
  8           0        2.168281   -1.892966    0.095960
  1           0        1.731301   -2.667542    0.490409
  8           0       -3.286424    0.996980    1.125130
  1           0       -3.281622    0.584599   -0.087598
  1           0       -2.160609    1.055371    1.317128
  1           0       -3.638771    0.330833    1.734404
  8           0       -3.020382    0.307897   -1.179149
  1           0       -1.810230    0.169849   -1.161764
  1           0       -3.478666   -0.500524   -1.451682

