%NPROCS=4
# opt=(calcfc,ts,noeigentest,maxcycle=1000,cartesian) b3lyp 6-31g(d) freq

boat4_Beta_B3LYP_6-31G_d

0 1
 O                  0.13190142   -1.70862711   -0.55081318
 C                  0.50279435    0.77305575    0.23474696
 C                 -1.91023461   -0.08868565   -0.10433491
 C                 -0.94019538    1.10234674   -0.15968378
 C                 -1.30185086   -1.23865231    0.39357980
 C                  0.97813875   -0.47702070   -0.52450263
 H                 -0.93796235    1.52289741   -1.17413564
 H                  1.07524080   -0.23807505   -1.59093438
 H                  0.57287845    0.64001412    1.31989859
 H                 -1.97321280   -2.09710159    0.26686515
 C                  2.33428336   -0.97228948   -0.01555462
 H                  2.26904682   -1.23745982    1.04518462
 H                  2.64845331   -1.87741447   -0.54701681
 H                 -2.72957584    0.13852121    0.58816526
 O                 -0.98018665   -1.23006942    1.63247385
 O                  3.33619966    0.03157641   -0.16523406
 H                  3.65852976   -0.02592580   -1.08421508
 O                 -2.49758952   -0.26466936   -1.40637245
 H                 -3.27369726   -0.84144366   -1.30004645
 O                 -1.41602121    2.17500721    0.67556729
 H                 -0.70758638    2.84862753    0.64344660
 O                  1.32484504    1.91511264   -0.06398790
 H                  2.24838619    1.63576766    0.11776872
 O                  0.28525619   -3.06165050    1.30364927
 H                  0.46680219   -2.53772304    0.23652831
 H                 -0.50069215   -2.30946442    1.81010887
 H                  1.09869737   -2.90992375    1.79036524
 O                  0.30509722    3.99784144    1.21774245
 H                  0.94948274    4.68882187    1.38778168
 H                  0.74668586    3.23383720    0.83972528

