# opt freq hf/gen

ch4

0 1
C  
H   1 B1
H   1 B2 2 A2
H   1 B3 2 A3 3 D3
H   1 B4 2 A4 3 D4
Variables:
B1        1.10940
B2        1.10940
A2      109.47121
B3        1.10940
A3      109.47123
D3      239.99999
B4        1.10940
A4      109.47123
D4      120.00000

H 0
STO 1S 3 1.173875
STO 1S 1 0.718591
****
C 0
STO 1S 6 5.685038
STO 2S 3 1.642076
STO 2P 3 2.055640
STO 2S 1 0.946446
STO 2P 1 0.980425
****


