# b3lyp/6-31g(d) opt freq

glo_1w_alpha_ircf_boat4_B3LYP_631Gd

0 1
  8  -1.255377     0.414322    -0.682384
  6   1.045262     0.351203    -0.156521
  6  -0.396652    -1.724720     0.447461
  6   1.009319    -1.159897     0.188329
  6  -1.465950    -1.205087    -0.510303
  6  -0.275658     1.066528     0.129476
  1   1.550292    -1.273845     1.140024
  1  -0.522985     0.985974     1.197784
  1   1.212078     0.425907    -1.241930
  6  -0.243651     2.552095    -0.291505
  1   0.001987     2.624206    -1.354514
  1  -1.229915     3.013643    -0.142486
  1  -0.323956    -2.814889     0.310504
  8   0.772601     3.300955     0.394675
  1   0.520458     3.364163     1.330461
  8  -0.782963    -1.401384     1.774221
  1  -1.755608    -1.485742     1.766663
  8   1.588691    -1.938523    -0.839136
  1   2.531501    -1.659029    -0.899702
  8   2.141153     0.935813     0.560309
  1   2.064946     1.905395     0.449515
  1  -1.324174    -1.505012    -1.551899
  8  -2.702170    -1.444360    -0.005085
  8  -3.655034     0.708760    -0.555831
  1  -3.333004    -0.707074    -0.311176
  1  -2.671757     0.894626    -0.603158
  1  -3.975771     1.086923     0.276419
  8   4.082662    -0.719138    -0.531172
  1   4.542325    -1.171223     0.192445
  1   3.601327     0.019584    -0.094050
 
