# b3lyp/6-31g(d) opt freq

glo_1w_beta_ircr_boat4_B3LYP_631Gd

0 1
  8  -1.722491     0.338940     0.467336
  6   0.655682     0.407261    -0.154141
  6  -0.248851    -1.798939     0.827541
  6   0.983750    -1.024942     0.323927
  6  -1.532394    -1.518514     0.063270
  6  -0.508259     1.060832     0.620519
  1   1.634728    -0.913572     1.206092
  1  -0.268501     1.038058     1.690092
  1   0.388413     0.347742    -1.218872
  1  -2.455536    -1.685869     0.655648
  6  -0.802159     2.502475     0.187626
  1  -0.998289     2.537114    -0.889834
  1  -1.703621     2.856011     0.705107
  1  -0.033501    -2.864448     0.650746
  8  -1.548462    -1.617244    -1.177247
  8   0.298706     3.390286     0.399849
  1   0.426667     3.483425     1.357975
  8  -0.373133    -1.525967     2.220160
  1  -1.209499    -1.907708     2.530897
  8   1.598800    -1.795055    -0.681021
  1   2.475971    -1.393809    -0.881432
  8   1.849148     1.189423     0.023890
  1   1.605773     2.132394    -0.072164
  8  -2.957454     0.316170    -1.660347
  1  -2.214209     0.568251    -0.399853
  1  -2.569857    -0.615684    -1.710135
  1  -2.595519     0.783777    -2.428449
  8   3.924297    -0.290526    -1.009785
  1   4.495466    -0.470689    -0.247747
  1   3.339282     0.439463    -0.707861
 
