# b3lyp/6-31g(d) opt freq

glo_2w_beta_ircr_boat4_B3LYP_631Gd

0 1
  8   0.629039    -0.211721    -0.972540
  6  -1.202373     0.841189     0.233673
  6  -1.098395    -1.686530     0.119741
  6  -1.941341    -0.435372    -0.167262
  6   0.414545    -1.386601     0.137411
  6   0.022297     1.049346    -0.666530
  1  -2.124486    -0.409269    -1.253112
  1  -0.347434     1.460911    -1.618223
  1  -0.890580     0.751980     1.282735
  1   0.984331    -2.167098    -0.381021
  6   1.017310     2.042737    -0.039673
  1   1.378740     1.642055     0.910661
  1   1.885192     2.198464    -0.697686
  1  -1.374945    -2.046722     1.119349
  8   0.889168    -1.027950     1.334348
  8   0.387968     3.292072     0.267189
  1   0.198304     3.738836    -0.573798
  8  -1.412086    -2.644634    -0.885467
  1  -1.179675    -3.522872    -0.547366
  8  -3.160722    -0.537194     0.547136
  1  -3.546794     0.355788     0.518970
  8  -2.122819     1.921290     0.088013
  1  -1.677934     2.693945     0.477553
  8   3.327022    -0.998608     1.123356
  1   3.370939    -0.655126     0.167462
  1   1.913136    -1.064792     1.328695
  1   3.691589    -0.315244     1.703940
  8   3.061611    -0.301187    -1.197112
  1   2.055365    -0.175750    -1.224950
  1   3.479703     0.518106    -1.495559
 
