# b3lyp/6-31g(d) opt freq

glo_1w_beta_ircf_boat4_B3LYP_631Gd

0 1
  8  -1.706455     0.278209     0.448014
  6   0.657570     0.408659    -0.151538
  6  -0.254893    -1.797564     0.822459
  6   0.984474    -1.024709     0.323488
  6  -1.537576    -1.387657     0.117884
  6  -0.512073     1.038241     0.624797
  1   1.632715    -0.917384     1.207822
  1  -0.249151     1.045928     1.693852
  1   0.387629     0.351319    -1.216180
  1  -2.451388    -1.678958     0.655031
  6  -0.807859     2.492303     0.186364
  1  -0.998333     2.531286    -0.891276
  1  -1.707746     2.851497     0.702128
  1  -0.063380    -2.862487     0.626450
  8  -1.554598    -1.602561    -1.197375
  8   0.296539     3.386182     0.400698
  1   0.425006     3.476910     1.359225
  8  -0.370731    -1.530117     2.217939
  1  -1.205783    -1.908507     2.535267
  8   1.598390    -1.795967    -0.681272
  1   2.474873    -1.393233    -0.883212
  8   1.851140     1.189070     0.022880
  1   1.602948     2.131924    -0.063662
  8  -2.956710     0.316945    -1.646084
  1  -2.496923     0.584444    -0.792481
  1  -2.283928    -1.012870    -1.584545
  1  -2.553733     0.826339    -2.364492
  8   3.923772    -0.290556    -1.009706
  1   4.494792    -0.469693    -0.247319
  1   3.338068     0.439746    -0.708418
 
