# b3lyp/6-31g(d) opt freq

glo_2w_alpha_ircr_boat4_B3LYP_631Gd

0 1
  8  -0.623615     0.359973     0.585650
  6   1.641635     0.211854    -0.246521
  6   0.232337    -1.912056    -0.200729
  6   1.557968    -1.247073     0.206520
  6  -0.918690    -0.960100    -0.553216
  6   0.594941     1.089873     0.465347
  1   1.609963    -1.273207     1.305458
  1   0.974636     1.271517     1.481535
  1   1.491201     0.252013    -1.337622
  6   0.380497     2.428422    -0.247979
  1   0.046275     2.258359    -1.276605
  1  -0.391296     3.021866     0.259489
  1   0.433977    -2.461291    -1.139147
  8   1.614897     3.147979    -0.347110
  1   1.807233     3.526056     0.525764
  8  -0.200376    -2.782358     0.815665
  1  -1.177218    -2.755390     0.747664
  8   2.624287    -1.985987    -0.368609
  1   3.422402    -1.449229    -0.222139
  8   2.950040     0.673256     0.071293
  1   3.000970     1.582607    -0.275470
  1  -0.766970    -0.365096    -1.468463
  8  -2.075505    -1.394712    -0.285205
  8  -3.835504     0.266418    -0.908814
  1  -3.188969    -0.507028    -0.765955
  1  -3.316158     1.156349     0.172766
  1  -4.719489    -0.093903    -0.744321
  8  -2.732802     1.602553     0.886274
  1  -1.494095     0.927506     0.733146
  1  -3.105166     1.336601     1.741339
 
