# b3lyp/6-31g(d) irc=(calcfc,reverse)

glo_2w_alpha_ts_boat2_B3LYP_631Gd

0 1
  6   0.046413    -1.478531     0.351104
  8   0.375273     0.083194     0.806781
  1   2.842537     1.186213     0.382539
  1   3.644665    -2.380404    -0.007926
  8   3.264718    -1.620294    -0.474933
  1   3.164111    -0.470055     0.347534
  8   2.835583     0.364667     0.945132
  1   1.764492     0.207322     0.993874
  6  -1.687210     1.040268    -0.064860
  6  -0.140620     0.980341    -0.191845
  1  -1.987296     1.889338     0.561985
  1   0.094559     0.561419    -1.179930
  8  -2.271044     1.248846    -1.339248
  1  -2.199202     0.378323    -1.781282
  6   0.496232     2.359584    -0.086398
  8   1.881495     2.400074    -0.499888
  1   0.491480     2.710523     0.949783
  1  -0.088255     3.060955    -0.693763
  1   1.908126     2.253750    -1.459523
  1   0.295431    -1.927808     1.325723
  8   0.748037    -1.828949    -0.682802
  1   2.251072    -1.823896    -0.602522
  6  -1.487497    -1.478294     0.058397
  1  -1.913166    -2.386739     0.510296
  6  -2.204005    -0.243329     0.627897
  1  -3.275707    -0.317717     0.419617
  8  -1.664349    -1.497812    -1.354734
  1  -0.769799    -1.773188    -1.674774
  8  -2.073790    -0.180187     2.042100
  1  -1.130324    -0.004580     2.203338
 
