# b3lyp/6-31g(d) irc=(calcfc,reverse)

glo_1w_alpha_ts_boat2_B3LYP_631Gd

0 1
  6  -1.490768    -1.327205    -0.370502
  8  -1.178156     0.281858    -0.824093
  1  -3.998446     0.565297    -1.498982
  8  -3.530820     0.658120    -0.652315
  1  -2.320033     0.676470    -0.837091
  6   1.053725     0.349273    -0.077148
  6  -0.321181     1.011588     0.074545
  1   1.391271     0.531447    -1.101266
  1  -0.683108     0.921954     1.104705
  8   2.046081     0.999800     0.755445
  1   1.848028     0.766128     1.679359
  6  -0.321745     2.492276    -0.330575
  8   0.392068     3.291000     0.593622
  1  -1.352689     2.862661    -0.335624
  1   0.071940     2.586483    -1.357000
  1   1.276123     2.891267     0.673160
  1  -1.447161    -1.723341    -1.393648
  8  -2.634754    -1.360123     0.263230
  1  -3.376588    -0.370945    -0.206541
  8   4.003439    -0.587600    -0.616022
  1   4.415775    -0.074387    -1.327000
  1   3.592693     0.078526    -0.028418
  6   1.053806    -1.194617     0.130275
  1   1.705138    -1.403218     0.994949
  6  -0.314790    -1.764836     0.510346
  1  -0.247108    -2.859944     0.407588
  8  -0.581816    -1.392255     1.850375
  1  -1.562686    -1.372865     1.889137
  8   1.517592    -1.872206    -1.018268
  1   2.463486    -1.623160    -1.100769
 
