%NPROCS=20
# b3lyp/6-31g(d) irc=(calcfc,forward,maxpoints=20)

glo_1w_alpha_ts_boat5_B3LYP_631Gd

0 1
   8           0       -1.395075   -0.252915   -1.124447
   6           0       -0.635865    0.727803    1.012119
   6           0        1.066798   -0.637357   -0.404303
   6           0        0.621013   -0.179893    0.994282
   6           0       -0.076438   -1.341991   -1.154644
   6           0       -1.288189    0.954880   -0.360728
   1           0        0.362220   -1.090035    1.548404
   1           0       -2.324770    1.283942   -0.179885
   1           0       -0.346163    1.705540    1.411808
   1           0        1.491492    0.198606   -0.962613
   6           0       -0.626749    2.083453   -1.173794
   1           0       -1.025221    2.047786   -2.196470
   1           0        0.457354    1.966358   -1.233433
   8           0       -0.846008    3.342868   -0.548425
   1           0       -1.747659    3.629984   -0.759800
   8           0        2.113477   -1.593684   -0.294783
   1           0        1.659502   -2.444430   -0.137689
   8           0        1.727413    0.481457    1.610767
   1           0        1.669929    0.352801    2.568970
   8           0       -1.577095    0.099343    1.925398
   1           0       -2.238378    0.764597    2.176048
   1           0        0.051229   -1.334970   -2.246955
   8           0       -0.429902   -2.467928   -0.609525
   1           0       -1.744545   -2.385398   -0.037266
   8           0       -2.639947   -1.837996    0.183211
   1           0       -2.457761   -1.416724    1.055850
   1           0       -2.244794   -1.003930   -0.526631
   8           0        3.907187    0.673004   -0.378719
   1           0        3.404796    0.814030    0.441782
   1           0        3.788959   -0.282723   -0.507529

