# b3lyp/6-31g(d) irc=(calcfc,reverse)

glo_2w_beta_ts_boat5_B3LYP_631Gd

0 1
  8   0.376942     0.734090    -0.621377
  6  -1.428503    -0.184194     0.733120
  6   0.181673    -1.795615    -0.374122
  6  -0.433138    -1.350465     0.953553
  6   1.011212    -0.677714    -1.085220
  6  -1.035730     0.692744    -0.480058
  1  -1.004621    -2.190445     1.368866
  1  -1.460626     0.228214    -1.380823
  1  -1.438804     0.429044     1.644268
  1   0.879607    -2.624448    -0.205021
  6  -1.615908     2.104416    -0.376635
  1  -1.264206     2.705494    -1.221446
  1  -1.249245     2.584770     0.548432
  1   0.725620    -0.632660    -2.164451
  8   2.267147    -0.716478    -0.790645
  8  -3.033016     2.082297    -0.427105
  1  -3.331908     1.284098     0.045251
  8  -0.955059    -2.234540    -1.136139
  1  -0.671315    -2.341721    -2.057965
  8   0.629982    -1.013990     1.866244
  1   0.241398    -0.968653     2.753888
  8  -2.768797    -0.660320     0.588500
  1  -2.749816    -1.257818    -0.182161
  8   3.758279     1.218300    -0.382472
  1   2.850602     1.335483     0.654670
  1   4.587072     0.808652    -0.087511
  1   3.197930     0.431409    -0.797210
  8   1.923939     1.319592     1.250290
  1   1.202767     1.241888     0.475370
  1   1.812573     0.400057     1.603651
 
