%NPROCS=4
# opt=(calcfc,ts,noeigentest,maxcycle=1000,cartesian) b3lyp 6-31g(d) freq

boat6_Alpha_B3LYP_6-31G_d

0 1
   6           0       -0.776700    0.749442    0.690635
   6           0        1.477959   -0.531517    0.407317
   6           0        0.663545    0.765815    0.145532
   6           0        0.604176   -1.734340    0.804018
   1           0        1.172350   -2.652969    0.594584
   1           0        2.187454   -0.318481    1.212291
   1           0       -0.761622    0.806669    1.782042
   1           0        0.600501    0.863539   -0.946159
   6           0       -0.621386   -1.750842   -0.093598
   1           0       -1.347266   -2.521215    0.203796
   8           0       -1.484641   -0.479245    0.356349
   6           0       -1.550464    1.931742    0.113206
   1           0       -1.055367    2.848158    0.451790
   1           0       -1.471519    1.902563   -0.989337
   8           0       -2.905472    1.849540    0.530358
   1           0       -3.350678    2.665876    0.255364
   8           0       -0.334549   -1.663454   -1.386593
   8           0        0.176917   -1.679589    2.158199
   1           0        0.952555   -1.876330    2.713045
   8           0        2.253187   -0.877435   -0.747805
   1           0        1.574031   -1.177777   -1.392750
   8           0        1.284702    1.903132    0.711048
   1           0        2.118846    2.042191    0.203903
   8           0       -2.498523   -0.666608   -1.804532
   1           0       -1.510130   -1.203035   -1.890863
   1           0       -2.471138    0.140796   -2.338471
   1           0       -2.166577   -0.393848   -0.628814
   8           0        3.401927    1.601912   -1.015075
   1           0        4.355658    1.747833   -0.998880
   1           0        3.241734    0.638185   -1.049796

