%NPROCS=4
# opt=(calcfc,ts,noeigentest,maxcycle=1000,cartesian) b3lyp 6-31g(d) freq

boat6_Alpha_B3LYP_6-31G_d

0 1
        6           0       -0.888799    0.721083    0.585796
        6           0        1.418390   -0.406208    0.592003
        6           0        0.567668    0.803845    0.111178
        6           0        0.569368   -1.624562    1.017220
        1           0        1.215333   -2.513879    0.971614
        1           0        2.020927   -0.067737    1.443282
        1           0       -0.941826    0.689513    1.675403
        1           0        0.550593    0.753552   -0.988487
        6           0       -0.527550   -1.820088   -0.018326
        1           0       -1.274669   -2.572038    0.275162
        8           0       -1.486356   -0.521803    0.115722
        6           0       -1.709174    1.897933    0.078962
        1           0       -1.242357    2.808350    0.475674
        1           0       -1.644181    1.947352   -1.023366
        8           0       -3.050354    1.736481    0.513263
        1           0       -3.531396    2.549141    0.296115
        8           0       -0.049866   -1.898208   -1.255151
        8           0       -0.025373   -1.482739    2.298409
        1           0        0.686963   -1.450262    2.954311
        8           0        2.337027   -0.819511   -0.430496
        1           0        1.748425   -1.261522   -1.089119
        8           0        1.105368    2.036321    0.542723
        1           0        1.944219    2.151190    0.036331
        8           0       -1.998324   -0.851852   -2.199709
        1           0       -1.072855   -1.462189   -2.018812
        1           0       -1.766477   -0.122960   -2.798516
        1           0       -1.906388   -0.487550   -1.007050
        8           0        3.327743    1.685115   -1.053372
        1           0        4.204483    1.819220   -0.669189
        1           0        3.150858    0.717367   -0.985457

