%NPROCS=4
# opt=(calcfc,ts,noeigentest,maxcycle=1000,cartesian) b3lyp 6-31g(d) freq

 ./6/glo_2w_beta_boat6_B3LYP_631Gd_iopt.out

0  1
C           0.24497         1.16227         0.12567
C           2.14848        -0.52233        -0.27784
C           1.50297         0.83847        -0.68997
C           1.43521        -1.15799         0.93294
H           1.79627        -2.18942         1.04458
H           3.19087        -0.31085         0.00128
H           0.54729         1.49532         1.12431
H           1.22547         0.73022        -1.74936
C          -0.06892        -1.22379         0.66208
H          -0.60878        -1.49148         1.58103
O          -0.61117         0.02381         0.22124
C          -0.58002         2.25249        -0.53643
H           0.03654         3.15486        -0.62717
H          -0.88094         1.92162        -1.54159
O          -1.73371         2.49718         0.27839
H          -2.26550         3.18539        -0.15000
O          -0.26234        -2.18562        -0.33608
O           1.61251        -0.41472         2.13357
H           2.56522        -0.30734         2.27950
O           2.19542        -1.43438        -1.36171
H           1.31372        -1.85995        -1.39085
O           2.38653         1.94644        -0.51137
H           3.11134         1.84567        -1.14801
O          -3.63451         0.38368         0.31167
H          -3.18768        -1.17182        -0.35579
H          -2.82725         0.94651         0.32291
H          -3.81296         0.21269         1.24883
O          -2.93781        -2.06768        -0.70585
H          -1.24010        -2.20978        -0.53391
H          -3.17894        -2.03591        -1.64341

