%NPROCS=4
# opt=(calcfc,ts,noeigentest,maxcycle=1000,cartesian) b3lyp 6-31g(d) freq

 ./6/glo_1w_alpha_boat6_B3LYP_631Gd_iopt.out

0  1
C          -0.66193        -0.47012        -0.68575
C           1.48575         0.66064         0.06299
C           0.78549        -0.69586        -0.23807
C           0.54490         1.88164         0.02973
H           1.00297         2.68852         0.62156
H           2.21973         0.83556        -0.72650
H          -0.70098         0.11727        -1.60706
H           0.72022        -1.24582         0.71991
C          -0.84996         1.58069         0.62261
O          -1.30173         0.26275         0.38865
C          -1.41992        -1.76999        -0.87414
H          -0.88232        -2.35327        -1.63187
H          -1.41835        -2.33024         0.07191
O          -2.75117        -1.45375        -1.28006
H          -3.16673        -2.27718        -1.57595
O           0.43254         2.25614        -1.33234
H          -0.42086         2.72236        -1.40592
O           2.25143         0.60389         1.28252
H           1.67916         0.25660         1.98695
O           1.46480        -1.45771        -1.20681
H           2.34968        -1.66262        -0.82573
O          -2.21272        -1.60667         2.38946
H          -2.63055         2.14543         0.11916
H          -1.97295        -0.89305         1.76983
H          -3.08391        -1.88771         2.07234
O           3.82551        -1.50514         0.28360
H           4.58947        -1.14813        -0.19387
H           3.48534        -0.75118         0.81285
O          -1.73787         2.52135         0.04661
H          -0.84231         1.69457         1.71504

