# OPT FREQ B3LYP/gen gfinput

 NH3.LOG

0  1
N           0.00000         0.00000         0.11921
H           0.00000         0.93722        -0.27814
H           0.81165        -0.46861        -0.27814
H          -0.81165        -0.46861        -0.27814

N  0		
STO 1S	6	6.676930968
STO 2S	3	1.981644667
STO 2P	3	2.522100746
STO 2S	1	1.064982843
STO 2P	1	1.181848517
****		
H  0		
STO 1S	3	1.173874877
STO 1S	1	0.718591289
****		

