# OPT FREQ B3LYP/gen gfinput

 OH2.LOG

0  1
O           0.00000         0.00000         0.11919
H           0.00000         0.75929        -0.47675
H           0.00000        -0.75929        -0.47675

O  0		
STO 1S	6	7.668942357
STO 2S	3	2.315623
STO 2P	3	2.961286042
STO 2S	1	1.182651431
STO 2P	1	1.327072454
****		
H  0		
STO 1S	3	1.173874877
STO 1S	1	0.718591289
****		

