# b3lyp/6-31g(d) irc=(calcfc,reverse)

glo_2w_alpha_ts_boat3_B3LYP_631Gd

0 1
  6   1.034724     0.206886     1.098052
  6   0.483562    -1.522733    -0.745496
  8  -0.521962     0.688624    -0.783413
  6  -0.903596    -0.894787    -0.632031
  6   0.529088     1.231026     0.069013
  6   1.363158    -1.173674     0.465207
  1   1.178512    -1.921196     1.247609
  1   0.962075    -1.094232    -1.638071
  1   0.080736     2.058404     0.636239
  1   1.956898     0.625927     1.518077
  6   1.635621     1.788574    -0.840591
  1   1.173447     2.392059    -1.636486
  1   2.190874     0.973631    -1.310086
  8   2.596022     2.532462    -0.100604
  1   2.153571     3.319453     0.255128
  8   0.318468    -2.922923    -0.903611
  1   1.211205    -3.287530    -1.015959
  8   2.706361    -1.275356    -0.023159
  1   3.308340    -1.174972     0.731173
  8   0.129294     0.066691     2.176495
  1  -0.634053    -0.434106     1.803191
  1  -1.463736    -0.985882    -1.575884
  8  -1.580444    -1.137409     0.460913
  8  -2.624630     1.862174    -0.532907
  1  -1.579279     1.332349    -0.681900
  1  -2.982893     2.093841    -1.405169
  8  -3.792726    -0.077618     0.335009
  1  -2.862007    -0.663879     0.409260
  1  -3.275517     1.026243    -0.094837
  1  -4.116575     0.034973     1.243014
 
