# b3lyp/6-31g(d) irc=(calcfc,reverse)

glo_1w_beta_ts_boat3_B3LYP_631Gd

0 1
  6  -0.770986    -0.572491     0.153629
  6  -0.280310     1.853857    -0.064048
  8   1.446986     0.284608     0.790741
  6   1.168970     1.330559    -0.155497
  6   0.604890    -0.892571     0.756928
  6  -1.172963     0.825940     0.621884
  1   1.847112     2.132903     0.157778
  1  -1.026410     0.903441     1.707131
  1  -0.639224     1.992793    -1.094071
  1   0.447698    -1.165816     1.807811
  1  -0.696428    -0.568399    -0.943164
  6   1.281397    -2.082254     0.063649
  1   2.307583    -2.188499     0.433166
  1   1.338658    -1.892576    -1.020558
  8   1.403109     0.917376    -1.468424
  8   0.600145    -3.288521     0.361615
  1  -0.353095    -3.081885     0.355818
  8  -0.260083     3.090730     0.633274
  1  -1.181470     3.391825     0.688622
  8  -2.542731     1.152142     0.312159
  1  -3.091089     0.670481     0.954053
  8  -1.692590    -1.577547     0.568941
  1  -2.408402    -1.582417    -0.109368
  8   3.898237     0.063882    -0.587813
  1   2.350571     0.652439    -1.500776
  1   3.319932    -0.005680     0.198194
  1   4.597362     0.686678    -0.337477
  8  -3.515605    -0.869035    -1.378750
  1  -3.266551     0.039507    -1.108626
  1  -3.231981    -0.952110    -2.301749
 
