%nproc=8
# b3lyp/6-31g(d) irc=(calcfc,forward,maxpoints=20)

glo_1w_beta_ts_boat3_B3LYP_631Gd

0 1
6           0        0.577973   -0.939256   -0.383644
6           0       -1.472404   -0.183838    1.003758
8           0        0.715086    1.180996    0.844795
6           0       -0.997781    1.192147    0.572105
6           0        1.423143   -0.035857    0.530248
6           0       -0.731308   -1.344277    0.294020
1           0       -1.171467    1.950334    1.348809
1           0       -0.465593   -2.069100    1.078774
1           0       -2.533127   -0.231547    0.719776
1           0        1.601205   -0.561922    1.478672
1           0        0.337756   -0.384289   -1.301293
6           0        2.770335    0.362183   -0.099004
1           0        3.298867    1.050934    0.574595
1           0        2.597739    0.884127   -1.044727
8           0       -1.200556    1.519271   -0.673360
8           0        3.585417   -0.767784   -0.423896
1           0        3.853882   -1.194698    0.406015
8           0       -1.289703   -0.245699    2.415903
1           0       -1.837807   -0.972265    2.749246
8           0       -1.598991   -1.965232   -0.652312
1           0       -1.050126   -2.601860   -1.141957
8           0        1.234368   -2.166602   -0.686131
1           0        2.134956   -1.944321   -0.990173
8           0        0.749287    2.877146   -0.846016
1           0       -0.306491    2.412837   -0.938091
1           0        0.938665    2.079974    0.079953
1           0        0.676215    3.787748   -0.515905
8           0       -3.627478    0.016761   -1.381526
1           0       -2.932058    0.698646   -1.395027
1           0       -3.101806   -0.802073   -1.393226

