# b3lyp/6-31g(d) opt freq

glo_1w_beta_ircr_boat5_B3LYP_631Gd

0 1
  8   1.210484     0.667502    -0.522720
  6   0.533166    -1.068387     1.023857
  6  -1.267947     0.586555     0.001148
  6  -0.916309    -0.828396     0.542873
  6  -0.232724     1.663819     0.294635
  6   1.624750    -0.538651     0.083417
  1  -1.570654    -0.990283     1.413768
  1   2.521463    -0.378978     0.700576
  1   0.694000    -2.155222     1.114001
  1  -1.325540     0.516250    -1.093542
  6   1.941249    -1.507199    -1.061495
  1   2.681770    -1.034693    -1.723687
  1   1.033909    -1.681615    -1.643999
  1   0.232857     1.623370     1.290478
  8  -0.235318     2.714108    -0.366499
  8   2.375345    -2.778741    -0.600257
  1   3.239832    -2.662802    -0.175707
  8  -2.475422     1.058380     0.561687
  1  -3.193850     0.539264     0.135851
  8  -1.279269    -1.761543    -0.498910
  1  -1.120729    -2.663867    -0.175107
  8   0.741342    -0.443486     2.291641
  1   0.048633    -0.745874     2.900750
  8   2.214591     2.895008    -0.496536
  1   1.877955     1.439544    -0.512141
  1   2.437995     3.181823    -1.395383
  1   1.242275     3.143342    -0.382516
  8  -3.920032    -0.845392    -0.890131
  1  -3.080264    -1.352057    -0.904097
  1  -4.030928    -0.529783    -1.799818
 
