# b3lyp/6-31g(d) opt freq

glo_2w_alpha_ircf_boat5_B3LYP_631Gd

0 1
  8   0.226950    -0.730434    -1.151363
  6  -0.764602    -0.126919     1.053544
  6  -0.259917     1.780059    -0.605076
  6  -1.167613     1.262825     0.542682
  6   0.976797     0.940320    -0.993334
  6  -0.636504    -1.154143    -0.082772
  1  -1.068690     1.973383     1.373383
  1  -0.177059    -2.050174     0.367721
  1  -1.569231    -0.496909     1.707964
  1  -0.902209     1.881998    -1.485581
  6  -1.967599    -1.574249    -0.720122
  1  -1.775121    -2.399003    -1.421327
  1  -2.388019    -0.739451    -1.279743
  8  -2.938871    -1.935888     0.258918
  1  -2.700173    -2.805490     0.614905
  8   0.281618     3.060980    -0.318840
  1   1.144019     2.877218     0.098442
  8  -2.515695     1.251042     0.050240
  1  -3.073060     0.789653     0.698233
  8   0.440403     0.006741     1.800904
  1   0.721061    -0.867767     2.111283
  1   1.151399     0.938431    -2.081618
  8   1.983482     0.986442    -0.240886
  1   2.637851    -1.719182    -0.011242
  8   2.114408    -2.203652    -0.757233
  1   1.872568    -3.086427    -0.446112
  1   1.052726    -1.368445    -1.104336
  8   3.163738    -0.796676     0.929883
  1   4.111725    -0.653308     0.790725
  1   2.698035     0.030532     0.580093
 
