# b3lyp/6-31g(d) opt freq

glo_1w_alpha_ircf_boat5_B3LYP_631Gd

0 1
  8  -1.215370    -0.431080    -1.199628
  6  -0.463971     0.505855     1.032076
  6   1.286552    -0.548956    -0.526161
  6   0.990284     0.510143     0.581478
  6   0.140593    -1.468650    -0.883477
  6  -1.411575     0.585557    -0.176687
  1   1.596491     0.275450     1.465604
  1  -2.431774     0.433466     0.219691
  1  -0.629506     1.424819     1.611271
  1   1.643487    -0.009861    -1.400490
  6  -1.409275     1.937817    -0.898883
  1  -2.226407     1.935427    -1.632421
  1  -0.472869     2.076417    -1.436954
  8  -1.538737     3.027596     0.010082
  1  -2.463415     3.064869     0.299176
  8   2.324154    -1.480843    -0.168949
  1   1.886175    -2.179891     0.352999
  8   1.335584     1.815971     0.070551
  1   0.923568     2.490625     0.638124
  8  -0.726649    -0.604663     1.899149
  1  -1.633228    -0.498680     2.226590
  1   0.262671    -1.872380    -1.897375
  8  -0.162455    -2.357392     0.048237
  1  -1.273537    -2.432466     0.188066
  8  -2.462737    -2.076469     0.009762
  1  -2.749061    -1.601465     0.800296
  1  -2.104857    -1.332897    -0.697617
  8   3.320860     0.772199    -0.107771
  1   2.978900     1.410492     0.519115
  1   3.140055    -0.120896     0.212292
 
