# b3lyp/6-31g(d) opt freq

glo_2w_beta_ircr_boat5_B3LYP_631Gd

0 1
  8   0.386416     0.787911    -0.593285
  6  -1.417681    -0.173769     0.745816
  6   0.188076    -1.805393    -0.364113
  6  -0.425219    -1.343672     0.961017
  6   1.067923    -0.748955    -1.095286
  6  -1.025890     0.722834    -0.450254
  1  -1.007177    -2.181281     1.367670
  1  -1.406072     0.251370    -1.364342
  1  -1.432067     0.427885     1.663970
  1   0.862363    -2.650275    -0.175051
  6  -1.618888     2.124728    -0.359891
  1  -1.262502     2.722292    -1.205125
  1  -1.261224     2.610619     0.564946
  1   0.738921    -0.603977    -2.150574
  8   2.284429    -0.745208    -0.797690
  8  -3.032844     2.089558    -0.424615
  1  -3.332087     1.297579     0.057353
  8  -0.947706    -2.223989    -1.134505
  1  -0.660476    -2.362057    -2.050926
  8   0.635757    -1.018501     1.869167
  1   0.251334    -0.961256     2.757752
  8  -2.756656    -0.648844     0.589159
  1  -2.736207    -1.245972    -0.181585
  8   3.829677     1.251829    -0.400101
  1   2.746959     1.385549     0.744043
  1   4.650894     0.838187    -0.094341
  1   3.317843     0.503842    -0.820457
  8   1.880172     1.326799     1.251794
  1   0.981957     1.124268     0.264257
  1   1.832527     0.416639     1.608512
 
