# b3lyp/6-31g(d) irc=(calcfc,reverse)

glo_2w_alpha_ts_boat6_B3LYP_631Gd

0 1
  6  -0.145029     0.979851    -0.201387
  6  -2.206143    -0.257173     0.611724
  6  -1.695840     1.018616    -0.097932
  6  -1.469578    -1.492209     0.071482
  1  -1.890162    -2.398973     0.531391
  1  -3.274953    -0.346202     0.394590
  1   0.124012     0.569181    -1.181778
  1  -2.015512     1.873426     0.511478
  6   0.058405    -1.468477     0.386821
  8   0.370104     0.102891     0.816460
  6   0.438803     2.376861    -0.095132
  1  -0.150246     3.029560    -0.750584
  1   0.362456     2.743011     0.938397
  8   1.818897     2.383490    -0.531127
  1   2.133442     3.300619    -0.522555
  8  -1.626458    -1.535957    -1.343777
  1  -0.725186    -1.808882    -1.645714
  8  -2.090039    -0.166606     2.025874
  1  -1.148184     0.014060     2.192107
  8  -2.268197     1.199271    -1.380984
  1  -2.170790     0.325706    -1.811939
  8   3.282171    -1.730674    -0.330251
  1   2.259962    -1.914382    -0.465321
  1   3.173787    -0.499572     0.312849
  1   3.651369    -1.656204    -1.224151
  8   0.778963    -1.833504    -0.630904
  1   0.298838    -1.898955     1.370857
  8   2.844981     0.372991     0.878903
  1   2.818481     1.173343     0.290728
  1   1.785609     0.214245     0.972629
 
