# b3lyp/6-31g(d) irc=(calcfc,forward)

glo_1w_beta_ts_boat6_B3LYP_631Gd

0 1
  6   0.884301     0.739319    -0.565516
  6  -1.417616    -0.396816    -0.565240
  6  -0.565220     0.805701    -0.066727
  6  -0.570271    -1.598288    -1.036737
  1  -1.210726    -2.492038    -1.006230
  1  -2.034463    -0.040612    -1.398493
  1   0.917537     0.735457    -1.656323
  1  -0.533259     0.728355     1.032158
  6   0.543249    -1.818633    -0.024506
  1   1.286924    -2.559199    -0.350013
  8   1.495679    -0.511666    -0.137014
  6   1.712187     1.904550    -0.045168
  1   1.233045     2.824485    -0.402215
  1   1.675868     1.920464     1.059259
  8   3.041789     1.760942    -0.519131
  1   3.527657     2.566067    -0.286050
  8   0.084699    -1.929760     1.217049
  8   0.003493    -1.418764    -2.322803
  1  -0.718511    -1.394947    -2.969716
  8  -2.317358    -0.841165     0.459698
  1  -1.718355    -1.295516     1.098813
  8  -1.110102     2.046552    -0.463828
  1  -1.961192     2.135763     0.027486
  8   2.032289    -0.887358     2.164796
  1   1.109631    -1.500166     1.980152
  1   1.797583    -0.172560     2.778663
  1   1.927312    -0.501458     0.980702
  8  -3.405946     1.636417     1.027691
  1  -4.232010     1.713032     0.526989
  1  -3.183161     0.676282     0.996509
 
