# b3lyp/6-31g(d) irc=(calcfc,forward)

glo_2w_beta_ts_boat6_B3LYP_631Gd

0 1
  6  -1.123566     0.734234    -0.207859
  6  -0.452336    -1.509620     0.826160
  6  -1.373952    -0.268543     0.942571
  6  -0.224511    -1.817144    -0.667316
  1   0.345612    -2.747972    -0.771145
  1  -0.966924    -2.352188     1.313648
  1  -1.767239     0.462023    -1.050134
  1  -1.200266     0.204951     1.920838
  6   0.719209    -0.711981    -1.215518
  1   0.588943    -0.554762    -2.296191
  8   0.240124     0.665852    -0.635449
  6  -1.465534     2.159682     0.199712
  1  -2.454783     2.133151     0.685204
  1  -0.734932     2.516237     0.944570
  8  -1.470207     2.970976    -0.961639
  1  -1.656830     3.881839    -0.689454
  8   1.962330    -0.944565    -0.793431
  8  -1.438806    -1.959009    -1.387955
  1  -2.182682    -1.698286    -0.816069
  8   0.802691    -1.304939     1.485533
  1   1.481768    -1.346807     0.736411
  8  -2.751577    -0.657087     0.815704
  1  -2.985637    -1.201028     1.585277
  8   1.765068     1.233803     1.272183
  1   2.736973     1.082091     0.765657
  1   1.522062     0.381038     1.726373
  1   1.119828     1.133093     0.429508
  8   3.667824     0.775536    -0.198359
  1   3.037885     0.075184    -0.665782
  1   4.420790     0.267133     0.142102
 
