# b3lyp/6-31g(d) opt freq

glo_1w_alpha_ircr_boat3_B3LYP_631Gd

0 1
  6  -0.484322    -0.197989     0.938085
  6   0.689021     1.457653    -0.674788
  8   1.058645    -0.974031    -0.840067
  6   1.804328     0.430909    -0.584679
  6  -0.183348    -1.253341    -0.136323
  6  -0.427470     1.246082     0.372825
  1  -0.216672     1.899998     1.231881
  1   0.228765     1.273730    -1.655770
  1  -0.049336    -2.213775     0.384462
  1  -1.496985    -0.375994     1.312057
  6  -1.277700    -1.401967    -1.206391
  1  -0.947708    -2.125483    -1.963386
  1  -1.463360    -0.443902    -1.692489
  8  -2.543499    -1.796907    -0.655475
  1  -2.432173    -2.643655    -0.194519
  8   1.243645     2.762431    -0.633671
  1   0.502788     3.373608    -0.775995
  8  -1.621123     1.639002    -0.294584
  1  -2.405389     1.355530     0.229079
  8   0.360237    -0.355590     2.062899
  1   1.247479    -0.034177     1.804385
  1   2.441031     0.441495    -1.476093
  8   2.511996     0.394075     0.574402
  8   3.001708    -1.953359     0.233690
  1   2.992828    -0.502095     0.565468
  1   2.176511    -1.832529    -0.322278
  1   3.718491    -2.174496    -0.379970
  8  -3.858319     0.315896     0.682875
  1  -4.623830     0.628726     0.177481
  1  -3.538830    -0.475760     0.196803
 
