# b3lyp/6-31g(d) opt freq

glo_2w_beta_ircr_boat3_B3LYP_631Gd

0 1
  6   1.195418     0.193552     0.875044
  6  -0.494386     1.763440    -0.212451
  8  -0.121773    -0.802113    -0.939817
  6  -1.096033     0.810103    -1.282757
  6   1.180704    -0.493595    -0.507720
  6  -0.028493     1.107406     1.094310
  1  -0.556792     0.898648    -2.241844
  1   0.300578     1.910106     1.773457
  1  -1.318948     2.447360     0.028088
  1   1.574188     0.233125    -1.230797
  1   1.189624    -0.575058     1.666397
  6   2.060561    -1.738337    -0.541306
  1   1.999367    -2.218742    -1.525932
  1   1.724209    -2.459579     0.211125
  8  -2.290658     0.480686    -1.282914
  8   3.415152    -1.403546    -0.200208
  1   3.844161    -1.067024    -1.002573
  8   0.566342     2.517821    -0.790920
  1   1.387667     2.330734    -0.301768
  8  -1.140455     0.412768     1.625651
  1  -0.881484    -0.015265     2.455968
  8   2.363559     1.010112     0.999856
  1   3.111227     0.419137     0.785232
  8  -1.474240    -2.283063     0.482946
  1  -2.350699    -1.747687     0.567665
  1  -0.656318    -1.410665    -0.286877
  1  -1.680984    -3.056422    -0.063638
  8  -3.462728    -0.814060     0.493131
  1  -4.168361    -1.155576    -0.077485
  1  -3.025145    -0.102738    -0.065592
 
