# b3lyp/6-31g(d) opt freq

glo_2w_alpha_ircr_boat3_B3LYP_631Gd

0 1
  6   1.021225     0.228060     1.090189
  6   0.474020    -1.506638    -0.756043
  8  -0.506851     0.733144    -0.803599
  6  -0.934558    -0.944027    -0.628929
  6   0.525760     1.266293     0.067428
  6   1.349969    -1.152577     0.456273
  1   1.164376    -1.899547     1.238869
  1   0.941908    -1.071247    -1.650480
  1   0.074903     2.089413     0.636274
  1   1.944737     0.643405     1.511120
  6   1.628188     1.814072    -0.845318
  1   1.164610     2.416005    -1.641343
  1   2.178046     0.994854    -1.314256
  8   2.588002     2.553831    -0.106706
  1   2.149161     3.345486     0.242801
  8   0.311755    -2.906642    -0.912657
  1   1.202633    -3.273801    -1.031401
  8   2.693355    -1.254802    -0.030245
  1   3.295049    -1.158420     0.724829
  8   0.117466     0.087762     2.169467
  1  -0.640183    -0.423465     1.803825
  1  -1.495462    -0.977211    -1.577199
  8  -1.571381    -1.132868     0.456377
  8  -2.647034     1.922617    -0.548962
  1  -1.402887     1.274061    -0.707572
  1  -3.033303     2.134328    -1.412585
  8  -3.853083    -0.075877     0.342988
  1  -3.006971    -0.639455     0.411976
  1  -3.246174     1.194400    -0.143242
  1  -4.171345     0.016937     1.253708
 
