%nproc=8
# b3lyp/6-31g(d) opt freq

glo_1w_beta_ircr_boat3_B3LYP_631Gd

0 1
6           0        0.585774   -0.938759   -0.385873
6           0       -1.449898   -0.167210    1.002054
8           0        0.642799    1.155337    0.852203
6           0       -0.846208    1.176488    0.622742
6           0        1.405756   -0.034308    0.533703
6           0       -0.724445   -1.339279    0.293030
1           0       -1.144556    1.947453    1.341090
1           0       -0.458242   -2.065584    1.076510
1           0       -2.504513   -0.166414    0.700131
1           0        1.601371   -0.568002    1.476190
1           0        0.348771   -0.380835   -1.303016
6           0        2.760823    0.380365   -0.094923
1           0        3.290842    1.066650    0.579725
1           0        2.589458    0.901482   -1.040790
8           0       -1.207099    1.492407   -0.679025
8           0        3.584657   -0.751233   -0.420513
1           0        3.854348   -1.177192    0.409661
8           0       -1.286154   -0.241115    2.416082
1           0       -1.834431   -0.972800    2.738036
8           0       -1.592326   -1.955554   -0.654400
1           0       -1.044342   -2.592551   -1.144401
8           0        1.243650   -2.161598   -0.689978
1           0        2.146202   -1.935988   -0.985460
8           0        0.809087    2.969733   -0.882879
1           0       -0.638575    2.257405   -0.964008
1           0        1.023673    2.417119   -0.093716
1           0        0.816431    3.890092   -0.578448
8           0       -3.621489    0.024250   -1.383988
1           0       -2.936669    0.714308   -1.400890
1           0       -3.086444   -0.788721   -1.389133

