%nproc=8
# b3lyp/6-31g(d) opt freq

glo_1w_beta_ircf_boat3_B3LYP_631Gd

0 1
6           0        0.590578   -0.922104   -0.380973
6           0       -1.490734   -0.192214    1.010952
8           0        0.805466    1.162055    0.917179
6           0       -1.159486    1.207226    0.536477
6           0        1.465726   -0.042380    0.534499
6           0       -0.720852   -1.329866    0.293864
1           0       -1.205057    1.972530    1.327121
1           0       -0.455148   -2.054960    1.078189
1           0       -2.555211   -0.310680    0.756004
1           0        1.655238   -0.600244    1.461458
1           0        0.352892   -0.363585   -1.297372
6           0        2.797861    0.358671   -0.104882
1           0        3.325007    1.047522    0.569983
1           0        2.617210    0.886405   -1.046638
8           0       -1.249621    1.501927   -0.668817
8           0        3.609470   -0.766952   -0.434992
1           0        3.875174   -1.196256    0.394307
8           0       -1.275286   -0.230758    2.416509
1           0       -1.814793   -0.952545    2.772634
8           0       -1.586072   -1.955367   -0.654294
1           0       -1.033567   -2.588941   -1.144047
8           0        1.240744   -2.154792   -0.689693
1           0        2.142721   -1.935246   -0.992366
8           0        0.807441    2.970948   -0.899836
1           0       -0.120367    2.646771   -1.046195
1           0        1.005557    1.897812    0.263792
1           0        0.727584    3.889305   -0.600394
8           0       -3.621667    0.022690   -1.383499
1           0       -2.921564    0.696358   -1.424121
1           0       -3.103425   -0.800996   -1.396051

