%NPROCS=4
# b3lyp/6-31g(d) irc=(calcfc,reverse,maxpoints=20)

 ./6/glo_1w_beta_boat6_B3LYP_631Gd_iopt.out

0  1
C           0.24889         1.02841        -0.57434
C          -1.39630        -0.86470        -0.06724
C          -1.22983         0.65536        -0.34594
C          -0.38089        -1.64764        -0.91023
H          -0.50292        -2.72484        -0.75033
H          -2.41501        -1.14375        -0.36408
H           0.45017         1.04073        -1.65372
H          -1.65821         1.19683         0.50506
C           1.03292        -1.27594        -0.41530
H           1.75963        -1.39087        -1.23305
O           1.09591         0.07800         0.06808
C           0.59559         2.38716         0.00660
H          -0.09133         3.12944        -0.42791
H           0.43157         2.35929         1.09531
O           1.95348         2.67231        -0.30559
H           2.17123         3.53600         0.07571
O           1.33823        -2.08608         0.68397
O          -0.52470        -1.37495        -2.29603
H          -1.09232        -0.58879        -2.40269
O          -1.27484        -1.17582         1.31613
H          -0.34217        -1.41084         1.49927
O          -1.91502         1.01327        -1.56092
H          -2.86793         1.00748        -1.37294
O           3.49626        -0.45717         1.27307
H           2.20092        -1.75272         1.03496
H           4.25025        -0.48655         0.66482
H           2.88398         0.19696         0.87844
O          -3.26118         0.62517         2.20709
H          -3.07161         1.06608         3.04823
H          -2.59375        -0.08823         2.15527

