%nproc=20
# opt=(modredundant,MaxCycle=1000) freq B3LYP/6-31G(d)

glo_2w_alpha_ircr_boat5_B3LYP_631Gd

0 1
 O                  0.48648800   -0.66801100   -0.57898900
 C                 -1.24602621    0.02579621    1.08649703
 C                 -0.33288200    1.62531900   -0.82706800
 C                 -1.56889100    1.26107500    0.03987200
 C                  0.78331805    0.73570209   -0.65073069
 C                 -0.60250700   -1.09945400    0.28303500
 H                 -1.79660689    2.12320423    0.68044860
 H                 -0.18188233   -1.81084088    1.00937900
 H                 -2.23953273   -0.32908439    1.38371302
 H                 -0.63431529    1.47208313   -1.86712895
 C                 -1.59443074   -1.83159330   -0.63453861
 H                 -1.04605185   -2.57806754   -1.22970723
 H                 -2.04889509   -1.11486072   -1.32033693
 O                 -2.66397708   -2.42067749    0.09351769
 H                 -2.29640059   -3.11907986    0.65787552
 O                  0.06043241    2.97986848   -0.71254005
 H                  0.60779365    3.02720934    0.09082523
 O                 -2.63187386    1.01953008   -0.88737042
 H                 -3.43846014    0.83938011   -0.37803918
 O                 -0.55187890    0.25697806    2.30059108
 H                  0.36325848    0.50295712    2.05589931
 H                  1.53480422    0.79639465   -1.44511601
 O                  1.29884925    1.27704085    0.53993460
 H                  3.65615600   -0.85624700    0.07167900
 O                  2.84525500   -2.13679900   -0.77519800
 H                  2.78173200   -2.92388500   -0.21354100
 H                  1.93828400   -1.75154200   -0.78385200
 O                  3.88372400   -0.00669900    0.53270600
 H                  4.49551200    0.45100400   -0.06298300
 H                  2.25477298    0.99687515    0.63450151

D 5 1 6 2 F
D 5 3 4 2 F

