%NPROCS=4
# opt=(calcfc,ts,noeigentest,maxcycle=1000,cartesian) b3lyp 6-31g(d) freq

boat5_Alpha_B3LYP_6-31G_d

0 1
    8           0        0.347016   -0.655938   -0.747095
    6           0       -1.260177    0.196301    0.956330
    6           0       -0.106988    1.771113   -0.758517
    6           0       -1.411453    1.400880    0.002696
    6           0        1.022625    0.740276   -0.575068
    6           0       -0.662628   -1.031616    0.241627
    1           0       -1.685165    2.271536    0.611985
    1           0       -0.174430   -1.641507    1.017040
    1           0       -2.255368   -0.106564    1.303082
    1           0       -0.377048    1.829961   -1.817194
    6           0       -1.683761   -1.882486   -0.528861
    1           0       -1.154895   -2.687644   -1.064245
    1           0       -2.178672   -1.252618   -1.268826
    8           0       -2.704155   -2.396030    0.314980
    1           0       -2.294183   -2.995734    0.958464
    8           0        0.409531    3.033723   -0.380697
    1           0        0.991351    2.843510    0.379164
    8           0       -2.403624    1.147294   -1.000434
    1           0       -3.254816    1.022861   -0.549700
    8           0       -0.537112    0.545596    2.120546
    1           0        0.387159    0.717995    1.819969
    1           0        1.678505    0.708249   -1.460015
    8           0        1.658870    0.861743    0.586662
    1           0        2.988457   -1.527673   -0.225443
    8           0        2.252986   -2.153603   -0.786124
    1           0        2.111394   -2.973254   -0.286423
    1           0        1.267964   -1.485626   -0.787498
    8           0        3.646255   -0.609492    0.488497
    1           0        4.352148   -0.193267   -0.028816
    1           0        2.853756    0.116621    0.598533

