%NPROCS=4
# opt=(calcfc,ts,noeigentest,maxcycle=1000,cartesian) b3lyp 6-31g(d) freq

boat5_Beta_B3LYP_6-31G_d

0 1
  8           0        1.268374    0.634072   -0.488918
  6           0        0.428683   -1.075956    1.024408
  6           0       -1.218549    0.709732   -0.053964
  6           0       -0.984813   -0.726726    0.508365
  6           0       -0.068941    1.656020    0.247123
  6           0        1.572123   -0.616575    0.108379
  1           0       -1.671150   -0.827235    1.365366
  1           0        2.465951   -0.535537    0.747565
  1           0        0.501139   -2.171970    1.113301
  1           0       -1.264903    0.632236   -1.149947
  6           0        1.848627   -1.614878   -1.030468
  1           0        2.666196   -1.220572   -1.651475
  1           0        0.958345   -1.696144   -1.658632
  1           0        0.312396    1.618863    1.274319
  8           0        0.015406    2.753494   -0.404174
  8           0        2.130723   -2.930762   -0.563416
  1           0        2.964367   -2.898325   -0.068625
  8           0       -2.391741    1.282698    0.484917
  1           0       -3.141171    0.757542    0.112455
  8           0       -1.390258   -1.642103   -0.531922
  1           0       -1.246285   -2.549778   -0.221577
  8           0        0.658529   -0.473857    2.299365
  1           0       -0.094300   -0.680272    2.877510
  8           0        2.406075    2.725418   -0.412312
  1           0        2.063935    1.564617   -0.471894
  1           0        2.719074    2.992766   -1.291389
  1           0        1.261641    3.013814   -0.365547
  8           0       -4.016298   -0.649958   -0.753030
  1           0       -3.198027   -1.191779   -0.811642
  1           0       -4.206477   -0.389961   -1.666932

