%NPROCS=4
# opt=maxcycle=1000 freq b3lyp/6-31g(d)

boat5_Beta_B3LYP_6-31G_d

0 1
 O                  0.02345897    1.70712926    0.11233480
 C                  0.69260700   -0.61586000    0.96228700
 C                 -1.35735200   -0.48066800   -0.50926200
 C                 -0.12920700   -1.31570000   -0.11305300
 C                 -1.52513997    0.83000474    0.14223320
 C                  1.09760500    0.78487300    0.51151700
 H                 -0.45774500   -2.29430300    0.25651700
 H                  1.54582600    1.32778800    1.35062800
 H                  1.58963500   -1.20854200    1.17746100
 H                 -1.33946600   -0.36349000   -1.59962300
 C                  2.04957400    0.82416300   -0.67494200
 H                  2.34730700    1.85794700   -0.88202600
 H                  1.57199000    0.45707600   -1.58880200
 H                 -1.87560497    0.76040974    1.17828020
 O                 -2.37783691    1.54912645   -0.48559790
 O                  3.21194400    0.06605100   -0.42526800
 H                  3.62096700    0.48219600    0.33451000
 O                 -2.53566400   -1.18116800   -0.17916000
 H                 -2.48804800   -1.99641200   -0.68003200
 O                  0.65932700   -1.57747900   -1.25237800
 H                  1.39727400   -2.09604000   -0.92930100
 O                 -0.03780900   -0.56036800    2.16711900
 H                 -0.81581200   -0.04048300    1.96163600
 O                 -1.71228221    2.52699448    1.51541980
 H                 -0.94712532    2.11637165    0.68721462
 H                 -1.80174024    3.43794895    1.80483163
 H                 -2.24303877    2.14599734    0.54666883
 O                 -1.50971321   -2.53781176   -1.96370266
 H                 -0.54971321   -2.53781176   -1.96370266
 H                 -1.83016779   -3.04662329   -2.71204729

