%NPROCS=4
# opt=(calcfc,ts,noeigentest,maxcycle=1000,cartesian) b3lyp 6-31g(d) freq

boat5_Beta_B3LYP_6-31G_d

0 1
         8           0       -1.214316   -0.682941   -0.447020
         6           0       -0.401706    1.067971    1.037586
         6           0        1.274377   -0.643941   -0.027905
         6           0        0.965593    0.830496    0.381907
         6           0        0.141615   -1.630125    0.230556
         6           0       -1.578060    0.529237    0.208057
         1           0        1.725584    1.108260    1.128150
         1           0       -2.402038    0.352498    0.917463
         1           0       -0.552522    2.149786    1.153618
         1           0        1.433383   -0.656912   -1.113805
         6           0       -2.028335    1.498336   -0.903194
         1           0       -2.937423    1.096535   -1.373660
         1           0       -1.246119    1.538146   -1.662524
         1           0       -0.221955   -1.653315    1.266581
         8           0        0.124403   -2.721612   -0.441741
         8           0       -2.217803    2.836842   -0.458393
         1           0       -2.969532    2.852201    0.155005
         8           0        2.405339   -1.116849    0.681726
         1           0        3.156597   -0.593346    0.324523
         8           0        1.144700    1.641296   -0.795049
         1           0        0.901535    2.556660   -0.576252
         8           0       -0.435783    0.490977    2.348110
         1           0        0.425342    0.049041    2.526109
         8           0       -2.268523   -2.815007   -0.458063
         1           0       -1.971355   -1.630312   -0.491965
         1           0       -2.622543   -3.107519   -1.315998
         1           0       -1.127006   -3.052688   -0.432781
         8           0        3.846411    0.795705   -0.848781
         1           0        3.012933    1.281474   -1.035831
         1           0        4.078798    0.370354   -1.676991

