%NPROCS=16
# opt=(modredundant,MaxCycle=1000) freq B3LYP/6-31G(d)

 Title Card Required

0 1
 H                 -1.72630300    0.21099000    1.53249200
 C                 -1.17536100   -0.15065900    0.65528400
 C                  1.01098700    1.01964000    0.16145400
 C                  0.92301800   -1.49816300    0.35773500
 C                  1.59571900   -0.29893600   -0.32923700
 O                 -0.20388200   -1.10648600    1.17824200
 C                 -0.50266000    1.04856700   -0.03168700
 H                  1.63487600   -2.01433000    1.01161500
 H                  1.49388200   -0.37529700   -1.41886400
 H                 -0.71971900    1.06249700   -1.10713300
 C                 -2.18696200   -0.84006100   -0.26502700
 H                 -2.63173700   -1.70410700    0.23997100
 H                 -1.71462500   -1.19773100   -1.18484300
 O                  0.46175100   -2.43027400   -0.61078400
 H                  0.15288054   -3.19734051   -0.09933622
 H                  1.27506500    1.19506100    1.21194900
 O                 -3.22220600    0.07517900   -0.61718200
 H                 -3.86227300   -0.42418100   -1.15627900
 O                  3.01406000   -0.29627500   -0.08215100
 H                  3.31831500    0.57870200   -0.39901700
 O                  1.61732800    2.10157500   -0.57103500
 H                  1.08336500    2.88771900   -0.33377300
 O                 -1.00372800    2.29609200    0.47406100
 H                 -1.96950300    2.27870900    0.32174700
 O                 -1.02341050   -3.57524744    1.25633081
 H                 -0.98224891   -2.68878225    1.66751035
 H                 -1.93040570   -3.66144310    0.92747747
 O                  4.35086624    2.09804160   -0.61798075
 H                  3.40561430    2.34540538   -0.71149207
 H                  4.63566497    2.54747025    0.19210885

D 6 4 5 3 F
D 6 2 7 3 F
