%NPROCS=4
# opt=(MaxCycle=1000) freq B3LYP/6-31G(d)

 ./boats/4/glo_2w_beta_ts_boat4_B3LYP_631Gd_r.out

0  1
O           0.62904        -0.21172        -0.97254
C          -1.20237         0.84119         0.23367
C          -1.09840        -1.68653         0.11974
C          -1.94134        -0.43537        -0.16726
C           0.41454        -1.38660         0.13741
C           0.02230         1.04935        -0.66653
H          -2.12449        -0.40927        -1.25311
H          -0.34743         1.46091        -1.61822
H          -0.89058         0.75198         1.28273
H           0.98433        -2.16710        -0.38102
C           1.01731         2.04274        -0.03967
H           1.37874         1.64206         0.91066
H           1.88519         2.19846        -0.69769
H          -1.37495        -2.04672         1.11935
O           0.88917        -1.02795         1.33435
O           0.38797         3.29207         0.26719
H           0.19830         3.73884        -0.57380
O          -1.41209        -2.64463        -0.88547
H          -1.17968        -3.52287        -0.54737
O          -3.16072        -0.53719         0.54714
H          -3.54679         0.35579         0.51897
O          -2.12282         1.92129         0.08801
H          -1.67793         2.69394         0.47755
O           3.32702        -0.99861         1.12336
H           3.37094        -0.65513         0.16746
H           1.91314        -1.06479         1.32869
H           3.69159        -0.31524         1.70394
O           3.06161        -0.30119        -1.19711
H           2.05537        -0.17575        -1.22495
H           3.47970         0.51811        -1.49556

