%NPROCS=4
# opt=(MaxCycle=1000) freq B3LYP/6-31G(d)

 ./boats/4/glo_1w_beta_ts_boat4_B3LYP_631Gd.out

0  1
O          -1.70646         0.27821         0.44801
C           0.65757         0.40866        -0.15154
C          -0.25489        -1.79756         0.82246
C           0.98447        -1.02471         0.32349
C          -1.53758        -1.38766         0.11788
C          -0.51207         1.03824         0.62480
H           1.63271        -0.91738         1.20782
H          -0.24915         1.04593         1.69385
H           0.38763         0.35132        -1.21618
H          -2.45139        -1.67896         0.65503
C          -0.80786         2.49230         0.18636
H          -0.99833         2.53129        -0.89128
H          -1.70775         2.85150         0.70213
H          -0.06338        -2.86249         0.62645
O          -1.55460        -1.60256        -1.19738
O           0.29654         3.38618         0.40070
H           0.42501         3.47691         1.35922
O          -0.37073        -1.53012         2.21794
H          -1.20578        -1.90851         2.53527
O           1.59839        -1.79597        -0.68127
H           2.47487        -1.39323        -0.88321
O           1.85114         1.18907         0.02288
H           1.60295         2.13192        -0.06366
O          -2.95671         0.31694        -1.64608
H          -2.49692         0.58444        -0.79248
H          -2.28393        -1.01287        -1.58455
H          -2.55373         0.82634        -2.36449
O           3.92377        -0.29056        -1.00971
H           4.49479        -0.46969        -0.24732
H           3.33807         0.43975        -0.70842

