%NPROCS=4
# opt=(MaxCycle=1000) freq B3LYP/6-31G(d)

 ./boats/4/glo_1w_alpha_ts_boat4_B3LYP_631Gd.out

0  1
O          -1.25538         0.41432        -0.68238
C           1.04526         0.35120        -0.15652
C          -0.39665        -1.72472         0.44746
C           1.00932        -1.15990         0.18833
C          -1.46595        -1.20509        -0.51030
C          -0.27566         1.06653         0.12948
H           1.55029        -1.27384         1.14002
H          -0.52299         0.98597         1.19778
H           1.21208         0.42591        -1.24193
C          -0.24365         2.55210        -0.29151
H           0.00199         2.62421        -1.35451
H          -1.22992         3.01364        -0.14249
H          -0.32396        -2.81489         0.31050
O           0.77260         3.30096         0.39467
H           0.52046         3.36416         1.33046
O          -0.78296        -1.40138         1.77422
H          -1.75561        -1.48574         1.76666
O           1.58869        -1.93852        -0.83914
H           2.53150        -1.65903        -0.89970
O           2.14115         0.93581         0.56031
H           2.06495         1.90539         0.44951
H          -1.32417        -1.50501        -1.55190
O          -2.70217        -1.44436        -0.00509
O          -3.65503         0.70876        -0.55583
H          -3.33300        -0.70707        -0.31118
H          -2.67176         0.89463        -0.60316
H          -3.97577         1.08692         0.27642
O           4.08266        -0.71914        -0.53117
H           4.54232        -1.17122         0.19245
H           3.60133         0.01958        -0.09405

