%nprocshared=12
# IRC=(CalcFC,Forward,MaxCycle=1000,MaxPoints=10) B3LYP/6-31G(d)

 glo_1w_alpha_ts_chair2_B3LYP_631Gd.out

0  1
C          -1.47550        -0.08828        -0.91317
O          -1.05562         0.80314         0.37768
C          -0.97857        -1.49500        -0.56509
C           0.48967        -1.54732        -0.10675
C           0.79220        -0.57122         1.04814
C           0.33315         0.87430         0.78599
H          -1.08227        -2.10109        -1.48442
H           1.87100        -0.55461         1.23212
H           0.33066         1.37474         1.75935
H           0.70483        -2.55526         0.26953
O          -1.81480        -2.01036         0.45747
O           1.34492        -1.24807        -1.22923
O           0.18725        -1.08041         2.22587
H           1.22095        -1.94575        -1.89289
H          -2.66686        -1.54730         0.28785
H          -0.72525        -1.33068         1.98015
C           1.18398         1.72864        -0.17146
O           2.44943         1.98929         0.39336
H           0.66774         2.68820        -0.30705
H           1.26302         1.25598        -1.15888
H           3.05855         1.27346         0.10498
H          -0.89507         0.38412        -1.72127
O          -2.78257        -0.01214        -0.97848
H          -3.04271         1.31943        -0.68920
H          -1.78624         1.73331         0.25226
O          -2.81240         2.28594        -0.19818
H          -3.45466         2.39366         0.52313
O           3.87551        -0.14353        -0.69164
H           4.24699         0.19509        -1.52012
H           3.08592        -0.66092        -0.95629

