%nprocshared=12
# IRC=(CalcFC,Forward,MaxCycle=1000,MaxPoints=10) B3LYP/6-31G(d)

 glo_1w_beta_ts_chair2_B3LYP_631Gd.out

0  1
C          -1.72019         0.46671        -0.50309
O          -1.06169         0.82441         0.90172
C          -1.59873        -1.04265        -0.71013
C          -0.12349        -1.46713        -0.61846
C           0.46858        -1.13462         0.77163
C           0.31525         0.33970         1.18120
H          -1.96431        -1.24839        -1.72601
H           1.54267        -1.33510         0.75051
H           0.38015         0.36102         2.27209
H          -0.05511        -2.55148        -0.74745
O          -2.33865        -1.78906         0.25451
O           0.59225        -0.85607        -1.69659
O          -0.06380        -2.00995         1.75485
H           0.16621         0.02228        -1.85612
H          -3.24986        -1.45597         0.27592
H          -1.03182        -2.00222         1.64506
C           1.38910         1.30710         0.62716
O           2.66651         0.90090         1.05692
H           1.19324         2.30760         1.02938
H           1.32541         1.38055        -0.46400
H           3.04592         0.34007         0.34193
O          -1.16243         1.19215        -1.46580
H          -1.12912         2.40436        -0.86673
H          -2.75693         0.74877        -0.23231
H          -1.07086         2.00764         0.73223
O          -1.07888         3.06358         0.04731
H          -1.91060         3.55735         0.13778
O           3.31708        -0.63091        -1.15749
H           2.40219        -0.77905        -1.48974
H           3.76671        -0.13250        -1.85583

