%NPROCS=4
# opt=(MaxCycle=1000) freq B3LYP/6-31G(d)

 ./boats/5/glo_1w_beta_ts_boat5_B3LYP_631Gd.out

0  1
O           1.16373         0.69571        -0.49481
C           0.53129        -1.07510         1.02686
C          -1.26594         0.59001         0.00153
C          -0.91638        -0.83018         0.54358
C          -0.13963         1.56858         0.26786
C           1.60083        -0.52216         0.08440
H          -1.57580        -0.98624         1.41163
H           2.50632        -0.36641         0.69698
H           0.68885        -2.16172         1.12253
H          -1.32934         0.51612        -1.09274
C           1.93562        -1.49971        -1.06233
H           2.67892        -1.02924        -1.72214
H           1.03314        -1.68277        -1.64891
H           0.22520         1.60997         1.29606
O          -0.21160         2.72273        -0.38028
O           2.37510        -2.77484        -0.59952
H           3.23729        -2.65550        -0.17086
O          -2.47204         1.06281         0.56171
H          -3.18726         0.54090         0.13244
O          -1.28057        -1.76019        -0.49875
H          -1.11422        -2.66200        -0.17778
O           0.73941        -0.44257         2.29252
H           0.05321        -0.75190         2.90573
O           2.21198         2.88016        -0.49648
H           2.04974         1.88608        -0.55213
H           2.44791         3.15078        -1.39655
H           0.72366         3.11375        -0.34162
O          -3.91932        -0.84466        -0.88981
H          -3.08159        -1.35529        -0.90298
H          -4.03182        -0.53388        -1.80098

