%NPROCS=4
# opt=(MaxCycle=1000) freq B3LYP/6-31G(d)

 ./boats/5/glo_2w_beta_ts_boat5_B3LYP_631Gd.out

0  1
O           0.39265         0.70354        -0.64648
C          -1.41630        -0.18052         0.73523
C           0.20032        -1.78010        -0.37291
C          -0.41903        -1.34587         0.96043
C           0.96687        -0.61437        -1.07444
C          -1.02940         0.68575        -0.48672
H          -0.99570        -2.19186         1.35667
H          -1.47767         0.22954        -1.37995
H          -1.42127         0.43854         1.64104
H           0.91345        -2.59753        -0.21487
C          -1.59659         2.10750        -0.37503
H          -1.24901         2.71047        -1.21991
H          -1.22664         2.58221         0.54983
H           0.75957        -0.64398        -2.16353
O           2.28512        -0.70819        -0.77825
O          -3.01591         2.08668        -0.42269
H          -3.31813         1.29417         0.05733
O          -0.93611        -2.22498        -1.13179
H          -0.65794        -2.36026        -2.05124
O           0.63616        -1.01587         1.86887
H           0.24898        -0.94388         2.75525
O          -2.75787        -0.65356         0.59418
H          -2.74577        -1.25431        -0.17353
O           3.75843         1.22251        -0.38043
H           3.17848         1.38758         0.43707
H           4.56944         0.80755        -0.05113
H           2.84205         0.13496        -0.86635
O           1.94975         1.34797         1.30060
H           1.28337         1.35741         0.57845
H           1.82686         0.43709         1.62924

