%NPROCS=4
# opt=(MaxCycle=1000) freq B3LYP/6-31G(d)

 ./boats/5/glo_1w_alpha_ts_boat5_B3LYP_631Gd.out

0  1
O          -1.21537        -0.43108        -1.19963
C          -0.46397         0.50586         1.03208
C           1.28655        -0.54896        -0.52616
C           0.99028         0.51014         0.58148
C           0.14059        -1.46865        -0.88348
C          -1.41158         0.58556        -0.17669
H           1.59649         0.27545         1.46560
H          -2.43177         0.43347         0.21969
H          -0.62951         1.42482         1.61127
H           1.64349        -0.00986        -1.40049
C          -1.40928         1.93782        -0.89888
H          -2.22641         1.93543        -1.63242
H          -0.47287         2.07642        -1.43695
O          -1.53874         3.02760         0.01008
H          -2.46341         3.06487         0.29918
O           2.32415        -1.48084        -0.16895
H           1.88617        -2.17989         0.35300
O           1.33558         1.81597         0.07055
H           0.92357         2.49063         0.63812
O          -0.72665        -0.60466         1.89915
H          -1.63323        -0.49868         2.22659
H           0.26267        -1.87238        -1.89738
O          -0.16245        -2.35739         0.04824
H          -1.27354        -2.43247         0.18807
O          -2.46274        -2.07647         0.00976
H          -2.74906        -1.60146         0.80030
H          -2.10486        -1.33290        -0.69762
O           3.32086         0.77220        -0.10777
H           2.97890         1.41049         0.51911
H           3.14005        -0.12090         0.21229

