%NPROCS=4
# opt=(MaxCycle=1000) freq B3LYP/6-31G(d)

 ./boats/5/glo_2w_alpha_ts_boat5_B3LYP_631Gd.out

0  1
O           0.22695        -0.73043        -1.15136
C          -0.76460        -0.12692         1.05354
C          -0.25992         1.78006        -0.60508
C          -1.16761         1.26283         0.54268
C           0.97680         0.94032        -0.99333
C          -0.63650        -1.15414        -0.08277
H          -1.06869         1.97338         1.37338
H          -0.17706        -2.05017         0.36772
H          -1.56923        -0.49691         1.70796
H          -0.90221         1.88200        -1.48558
C          -1.96760        -1.57425        -0.72012
H          -1.77512        -2.39900        -1.42133
H          -2.38802        -0.73945        -1.27974
O          -2.93887        -1.93589         0.25892
H          -2.70017        -2.80549         0.61491
O           0.28162         3.06098        -0.31884
H           1.14402         2.87722         0.09844
O          -2.51570         1.25104         0.05024
H          -3.07306         0.78965         0.69823
O           0.44040         0.00674         1.80090
H           0.72106        -0.86777         2.11128
H           1.15140         0.93843        -2.08162
O           1.98348         0.98644        -0.24089
H           2.63785        -1.71918        -0.01124
O           2.11441        -2.20365        -0.75723
H           1.87257        -3.08643        -0.44611
H           1.05273        -1.36844        -1.10434
O           3.16374        -0.79668         0.92988
H           4.11172        -0.65331         0.79073
H           2.69803         0.03053         0.58009

