%NPROCS=4
# opt=(MaxCycle=1000) freq B3LYP/6-31G(d)

 ./boats/5/glo_1w_alpha_ts_boat5_B3LYP_631Gd_r.out

0  1
O          -1.22404        -0.48876        -1.15003
C          -0.49691         0.52464         1.01148
C           1.29580        -0.52954        -0.56740
C           0.95163         0.52533         0.53773
C           0.14490        -1.45620        -0.91785
C          -1.46521         0.55601        -0.17826
H           1.57631         0.33111         1.41826
H          -2.47717         0.39373         0.23702
H          -0.65419         1.45315         1.57604
H           1.63301         0.02885        -1.43986
C          -1.50255         1.90671        -0.91196
H          -2.33097         1.89123        -1.63222
H          -0.57470         2.06071        -1.45883
O          -1.62612         2.99760         0.00284
H          -2.54352         3.02790         0.31528
O           2.36096        -1.41617        -0.21242
H           1.95462        -2.10347         0.34893
O           1.23771         1.81680        -0.03073
H           0.83974         2.50557         0.52921
O          -0.72202        -0.58371         1.89457
H          -1.53737        -0.39181         2.38490
H           0.20368        -1.84055        -1.94228
O          -0.06946        -2.37170         0.02997
H          -1.09110        -2.52226         0.15868
O          -2.43306        -2.16776         0.09154
H          -2.55585        -1.67840         0.91594
H          -2.16483        -1.46732        -0.59142
O           3.50491         0.86786         0.04412
H           2.94634         1.51165         0.48478
H           3.21613        -0.02222         0.28448

