%NPROCS=4
# opt=(MaxCycle=1000) freq B3LYP/6-31G(d)

 ./boats/5/glo_2w_beta_ts_boat5_B3LYP_631Gd_r.out

0  1
O           0.38649         0.78802        -0.59315
C          -1.41768        -0.17375         0.74586
C           0.18808        -1.80547        -0.36408
C          -0.42522        -1.34366         0.96105
C           1.06794        -0.74905        -1.09529
C          -1.02586         0.72292        -0.45016
H          -1.00741        -2.18122         1.36756
H          -1.40559         0.25156        -1.36437
H          -1.43212         0.42772         1.66416
H           0.86184        -2.65081        -0.17461
C          -1.61893         2.12479        -0.35982
H          -1.26265         2.72254        -1.20493
H          -1.26169         2.61089         0.56510
H           0.73894        -0.60369        -2.15052
O           2.28463        -0.74522        -0.79774
O          -3.03289         2.08956        -0.42463
H          -3.33224         1.29768         0.05745
O          -0.94771        -2.22397        -1.13452
H          -0.66048        -2.36250        -2.05090
O           0.63570        -1.01859         1.86915
H           0.25130        -0.96132         2.75773
O          -2.75666        -0.64883         0.58914
H          -2.73617        -1.24577        -0.18174
O           3.82975         1.25198        -0.39994
H           2.75455         1.38699         0.73851
H           4.65169         0.83917        -0.09435
H           3.31751         0.50272        -0.82164
O           1.87928         1.32671         1.25181
H           0.98210         1.12109         0.26316
H           1.83278         0.41721         1.60920

