%NPROCS=4
# opt=(MaxCycle=1000) freq B3LYP/6-31G(d)

 ./boats/5/glo_1w_beta_ts_boat5_B3LYP_631Gd_r.out

0  1
O           1.21048         0.66750        -0.52272
C           0.53317        -1.06839         1.02386
C          -1.26795         0.58656         0.00115
C          -0.91631        -0.82840         0.54287
C          -0.23272         1.66382         0.29463
C           1.62475        -0.53865         0.08342
H          -1.57065        -0.99028         1.41377
H           2.52146        -0.37898         0.70058
H           0.69400        -2.15522         1.11400
H          -1.32554         0.51625        -1.09354
C           1.94125        -1.50720        -1.06150
H           2.68177        -1.03469        -1.72369
H           1.03391        -1.68162        -1.64400
H           0.23286         1.62337         1.29048
O          -0.23532         2.71411        -0.36650
O           2.37534        -2.77874        -0.60026
H           3.23983        -2.66280        -0.17571
O          -2.47542         1.05838         0.56169
H          -3.19385         0.53926         0.13585
O          -1.27927        -1.76154        -0.49891
H          -1.12073        -2.66387        -0.17511
O           0.74134        -0.44349         2.29164
H           0.04863        -0.74587         2.90075
O           2.21459         2.89501        -0.49654
H           1.87796         1.43954        -0.51214
H           2.43799         3.18182        -1.39538
H           1.24228         3.14334        -0.38252
O          -3.92003        -0.84539        -0.89013
H          -3.08026        -1.35206        -0.90410
H          -4.03093        -0.52978        -1.79982

