# opt freq hf/gen

h2o

0 1 
O              
 H                  1            B1
 O                  1            B2    2            A1
 H                  3            B3    1            A2    2            D1    0

   B1             0.96000000
   B2             1.32000000
   B3             0.96000000
   A1           109.50000006
   A2           109.50000006
   D1           179.99890000

H 0
STO 1S 3 1.173875
STO 1S 1 0.718591
****
O 0
STO 1S 6 7.668943
STO 2S 3 2.318057
STO 2P 3 2.961287
STO 2S 1 1.182671
STO 2P 1 1.327073
****


