%NPROCS=4
# b3lyp/6-31g(d) irc=(calcfc,forward,maxpoints=20)

 ./5/glo_1w_alpha_boat5_b3lyp_631Gd_iopt.out

0  1
O          -1.53085        -0.41389        -0.69639
C          -0.24403         0.83743         1.03554
C           0.89856        -0.37287        -0.93024
C           1.09818         0.48733         0.32950
C          -0.35896        -1.23048        -0.79656
C          -1.44199         0.81245         0.07642
H           1.68639        -0.08252         1.06004
H          -2.34849         0.83566         0.69602
H          -0.18256         1.85807         1.43013
H           0.73094         0.30161        -1.77575
C          -1.48182         2.01581        -0.88142
H          -2.26146         1.84035        -1.63678
H          -0.52781         2.13504        -1.40068
O          -1.68455         3.23351        -0.17400
H          -2.58692         3.22482         0.18219
O           2.03167        -1.13746        -1.28442
H           2.36833        -1.58430        -0.48862
O           1.84001         1.63433        -0.09922
H           1.96493         2.21179         0.67115
O          -0.46263        -0.00782         2.15434
H          -0.39862        -0.92018         1.80369
H          -0.51322        -1.82177        -1.70471
O          -0.21719        -2.08392         0.32083
H          -1.02985        -2.64559         0.33809
O           4.14940        -0.47804         0.42297
H           4.50323         0.09056         1.12262
H           3.72670         0.13626        -0.20125
O          -2.85684        -2.78459         0.12252
H          -3.28597        -2.70748         0.98865
H          -2.81735        -1.86731        -0.21725

