%NPROCS=4
# b3lyp/6-31g(d) irc=(calcfc,forward,maxpoints=20)

 ./5/glo_1w_beta_boat5_b3lyp_631Gd_iopt.out

0  1
O          -1.44696         0.03501        -0.24572
C           0.30070         1.09580         1.13693
C           0.71846        -1.11465        -0.06243
C           1.31181         0.26021         0.35474
C          -0.79629        -1.21425         0.14885
C          -0.99884         1.26438         0.34569
H           2.16346         0.05512         1.02150
H          -1.76256         1.60728         1.05876
H           0.71940         2.09196         1.33468
H           0.88329        -1.22624        -1.14199
C          -0.86851         2.25728        -0.83910
H          -1.85196         2.67963        -1.08535
H          -0.51485         1.69220        -1.70094
H          -1.03188        -1.40062         1.20298
O          -1.28936        -2.19918        -0.68194
H          -2.25304        -2.26957        -0.50238
O           0.09445         3.29895        -0.64508
H          -0.23923         3.91490         0.02590
O           1.33248        -2.15581         0.67378
H           2.25468        -2.17198         0.34327
O           1.78888         0.92497        -0.82020
H           1.72788         1.89004        -0.69337
O          -0.01050         0.47103         2.38208
H           0.64873        -0.21917         2.56155
O          -3.91222        -1.32544        -0.39406
H          -3.28562        -0.57360        -0.34623
H          -4.18408        -1.34179        -1.32490
O           3.66303        -1.28312        -0.83525
H           3.27003        -0.41148        -1.04143
H           3.69347        -1.74061        -1.68904

