%NPROCS=4
# opt=(calcfc,ts,noeigentest,maxcycle=1000,cartesian) b3lyp 6-31g(d) freq

 ./1/glo_1w_beta_boat1_b3lyp_631Gd_iopt.out

0  1
H          -1.93219         1.83274         0.43415
C          -1.11650         1.18448         0.08357
C           1.23098         0.41118         0.73483
C          -0.66653        -1.26408         0.26582
C           0.79185        -0.87347         0.00627
O          -1.59121        -0.14071         0.28595
C           0.11847         1.46056         0.94701
H          -0.75177        -1.71980         1.26069
H           0.87969        -0.69768        -1.07515
H           0.50220         2.45626         0.67499
C          -0.92521         1.53414        -1.39966
H          -1.77215         1.11183        -1.95998
H          -0.00120         1.09990        -1.80144
O          -1.04696        -2.14108        -0.73922
H          -1.95224        -2.44767        -0.51347
H           1.59139         0.11961         1.72782
O          -0.89562         2.95787        -1.47232
H          -0.63521         3.20736        -2.37122
O           1.58891        -1.97060         0.39589
H           2.40553        -1.94093        -0.14987
O           2.31810         0.95650        -0.04642
H           2.69347         1.70289         0.44764
O          -0.20015         1.39610         2.33503
H          -1.01381         1.90291         2.48450
O          -3.73585        -1.95835         0.01079
H          -3.30118        -1.10121         0.19439
H          -4.15839        -1.82623        -0.85194
O           3.90368        -1.19222        -0.93949
H           3.52987        -0.31852        -0.69414
H           4.59052        -1.35837        -0.27572

