%NPROCS=4
%chk=ttt.chk
# opt=(calcfc,ts,noeigentest,maxcycle=1000,cartesian) freq b3lyp/6-31g(d)

glo_2w_Beta_B3LYP_6-31G_d

0 1
6           0        0.450562   -1.418136    0.165849
8           0        0.618806   -0.154232   -0.973930
8           0        0.953291   -1.060157    1.303017
1           0        2.253842   -1.065028    1.260896
1           0        3.355583   -0.681169   -1.830041
1           0        3.707565   -0.297340    1.661495
8           0        3.373835   -0.975411    1.045683
1           0        3.308708   -0.467295   -0.126250
8           0        3.033706   -0.045415   -1.175483
1           0        1.809201   -0.064418   -1.148166
6           0       -1.282777    0.801131    0.239151
6           0       -0.042811    1.077416   -0.633123
1           0        1.001446   -2.145848   -0.451201
1           0       -0.991473    0.725855    1.295659
1           0       -0.408366    1.505520   -1.577407
8           0       -2.251562    1.837721    0.070108
1           0       -1.818509    2.645298    0.405073
6           0        0.894885    2.086331    0.047338
8           0        0.195337    3.314724    0.302091
1           0        1.799313    2.262005   -0.551886
1           0        1.198878    1.698670    1.024103
1           0        0.133259    3.796919   -0.538295
6           0       -1.936267   -0.507317   -0.187906
1           0       -2.067665   -0.488424   -1.282357
6           0       -1.056307   -1.718829    0.156996
1           0       -1.303273   -2.016225    1.184437
8           0       -3.188022   -0.689131    0.461405
1           0       -3.631621    0.177003    0.426269
8           0       -1.271263   -2.793599   -0.751279
1           0       -2.223611   -2.985103   -0.735050


