%nprocshared=2
%chk=glo_1w_Alpha_ts_chair2_B3LYP_6-31Gd.chk
# opt=(calcfc,ts,noeigentest,maxcycle=1000,cartesian) freq B3LYP/6-31G(d)

Glo_A_ch2_GS_b3lyp_631Gd

0 1
6           0       -1.336203    0.126954   -0.940255
8           0       -1.076203    0.781283    0.557983
6           0       -1.003352   -1.350947   -0.771085
6           0        0.390300   -1.585856   -0.167965
6           0        0.594431   -0.851115    1.169152
6           0        0.241247    0.647121    1.150797
1           0       -1.017822   -1.785498   -1.787045
1           0        1.640699   -0.936044    1.474733
1           0        0.112521    0.918744    2.203811
1           0        0.513655   -2.654340    0.046624
8           0       -2.001704   -1.953535    0.036130
8           0        1.373117   -1.170814   -1.140623
8           0       -0.180448   -1.523327    2.153919
1           0        1.391198   -1.849444   -1.831193
1           0       -2.799636   -1.415104   -0.156248
1           0       -1.073160   -1.640101    1.771917
6           0        1.255618    1.621730    0.507539
8           0        2.585647    1.372125    0.936391
1           0        0.978387    2.642780    0.832183
1           0        1.163532    1.595120   -0.592524
1           0        3.055474    0.891533    0.217199
1           0       -0.590104    0.665012   -1.541506
8           0       -2.597603    0.354482   -1.191361
1           0       -2.691038    1.669226   -0.863059
1           0       -1.622561    1.820908    0.382112
8           0       -2.356242    2.575890   -0.307112
1           0       -3.133949    2.955860    0.175698
8           0        3.778180    0.194250   -1.336399
1           0        4.105666    0.641011   -2.122463
1           0        2.916943   -0.209821   -1.570768


