%nprocshared=12
# opt=(calcfc,ts,noeigentest,maxcycle=1000,cartesian) freq B3LYP/6-31G(d)

Glo_A_ch2_GS_b3lyp_631Gd

0 1
 C                 -1.72019500    0.46671500   -0.50309000
 O                 -1.06168800    0.82441400    0.90172400
 C                 -1.59873300   -1.04264900   -0.71012700
 C                 -0.12349400   -1.46713100   -0.61846200
 C                  0.46858400   -1.13462500    0.77162900
 C                  0.31525200    0.33969900    1.18120400
 H                 -1.96431100   -1.24838700   -1.72600600
 H                  1.54266900   -1.33510400    0.75050900
 H                  0.38015400    0.36102200    2.27208800
 H                 -0.05510900   -2.55147800   -0.74744800
 O                 -2.33865400   -1.78905600    0.25450800
 O                  0.59224500   -0.85607400   -1.69659300
 O                 -0.06380100   -2.00994800    1.75484800
 H                  0.16621000    0.02228400   -1.85611900
 H                 -3.24985700   -1.45596600    0.27592300
 H                 -1.03182200   -2.00222200    1.64505900
 C                  1.38910100    1.30709700    0.62715700
 O                  2.66650800    0.90089500    1.05692300
 H                  1.19324400    2.30760300    1.02938100
 H                  1.32541100    1.38055400   -0.46400000
 H                  3.04592100    0.34007000    0.34193100
 O                 -1.16242700    1.19215000   -1.46580000
 H                 -0.85608847    2.15956475   -2.10631964
 H                 -2.75693000    0.74877300   -0.23230600
 H                 -1.07086400    2.00763700    0.73223400
 O                 -1.55820520    3.09284064   -2.38205178
 H                 -2.41441122    2.76997022   -2.70827254
 O                 -1.09546226    2.88558768   -0.08544413
 H                 -0.27438217    3.22887504    0.27452987
 H                 -1.45219215    3.44221922   -1.23894381

