%nprocshared=8
# opt=(calcfc,ts,noeigentest,maxcycle=1000,cartesian) freq b3lyp/6-31g(d)

Glo_A_ch2_GS_b3lyp_631Gd

0 1
 C                 -1.24781430    0.85494928   -0.61975086
 O                 -0.41908746    1.00385755    0.94850873
 C                 -1.40285988   -0.59217159   -0.86153556
 C                 -0.09042288   -1.39490459   -0.79925356
 C                  0.60341712   -1.19116059    0.55863944
 C                  0.76560112    0.30359241    0.89764844
 H                 -1.80244188   -0.60456059   -1.88990156
 H                  1.59977912   -1.63836259    0.52062644
 H                  0.98703212    0.34075441    1.96728244
 H                 -0.31487188   -2.46277559   -0.91397656
 O                 -2.33317388   -1.18828659    0.03554444
 O                  0.81138112   -0.94715859   -1.82113556
 O                 -0.11041588   -1.87347659    1.57411644
 H                  0.46490812   -1.21555459   -2.68593556
 H                 -2.96030888   -0.47276359    0.25593844
 H                 -1.05057188   -1.63963359    1.45488744
 C                  1.87196312    1.06253641    0.11015144
 O                  2.94626512    0.23873641   -0.30763656
 H                  2.30370112    1.82842141    0.76179044
 H                  1.42401112    1.58562641   -0.74470256
 H                  2.59825112   -0.29282359   -1.04559856
 H                 -0.68551630    1.37265628   -1.41061586
 O                 -2.40517815    1.38080478   -0.47013495
 H                 -2.14409833    2.48271875    0.29157395
 H                 -0.26207493    2.25701711    0.98795383
 O                 -1.08451514    2.99755589    0.52010442
 H                 -1.55632563    3.77426357    0.82949097
 O                  3.23766302   -0.15396782   -2.82937868
 H                  3.42628114    0.02173845   -3.75412216
 H                  2.28745716   -0.18918059   -2.69720877

