# opt=(TS,CalcFC,NoEigenTest,MaxCycle=500,cartesian) Freq B3LYP 6-31G(d)

glo_1w_ALPHA_B3LYP_6-31G_d

0 1
 C                  0.00000000    0.00000000    0.00000000
 O                  0.00000000    0.00000000    1.65793354
 H                  2.74518323    0.00000000    1.64415142
 O                  2.30918331    0.86872556    1.70008630
 H                  1.06444179    0.56129414    1.92970351
 C                 -2.36557023   -0.02414189    1.84253246
 C                 -1.09344785    0.72667303    2.27952406
 H                 -2.35367650   -1.08877991    2.18180285
 H                 -1.09099054    1.77768405    1.90343612
 O                 -3.50393596    0.52378611    2.53658257
 H                 -3.60590714    1.48682431    2.33025952
 C                 -0.85398088    0.66290602    3.79875489
 O                 -1.89274104    1.36840249    4.47331371
 H                  0.06367282    1.20962271    4.09259609
 H                 -0.79465613   -0.37797155    4.16374428
 H                 -2.75905978    0.89390022    4.35006570
 H                  0.19903006   -1.08362675   -0.06001831
 O                  0.93016237    0.84262856   -0.27130570
 H                  2.12070854    1.10939790    0.66384562
 O                 -5.33119162   -0.96181270    1.03897243
 H                 -5.92949045   -1.62097860    1.37203286
 H                 -4.97708045   -0.47830523    1.80566882
 C                 -2.60369911    0.04668474    0.31493352
 H                 -3.45716850    0.73281111    0.08743400
 C                 -1.37779878    0.47958543   -0.50652979
 H                 -1.50533041    0.13952372   -1.56657088
 O                 -1.41238631    1.91263335   -0.49560413
 H                 -0.47725386    2.25306971   -0.64950021
 O                 -2.90185537   -1.27320350   -0.14523378
 H                 -3.88179787   -1.46097573   -0.01557785


