# opt=(CalcFC,ts,cartesian,Noeigentest,maxcycles=500) freq b3lyp 6-31G(d)

glo_2w_beta_ts_boat

0 1
 6           0       -0.023280   -1.433070   -0.411337
 8           0        0.448659    0.063094    0.298336
 1           0        3.026282    1.130747   -0.134058
 1           0        3.730122   -2.411020    0.164025
 8           0        3.274446   -1.900808   -0.511633
 1           0        3.287524   -0.497133   -0.033026
 8           0        2.923695    0.372414    0.486349
 1           0        1.655383    0.156030    0.410954
 6           0       -1.666916    1.118213    0.098575
 6           0       -0.172451    1.208693   -0.309428
 1           0       -1.977879    1.975798    0.739217
 1           0       -0.071979    1.119036   -1.416840
 8           0       -2.466767    1.266817   -1.068193
 1           0       -2.496439    0.411329   -1.584531
 6           0        0.551576    2.459962    0.197809
 8           0        1.803823    2.592802   -0.499581
 1           0        0.864675    2.359169    1.258563
 1           0       -0.047419    3.378345    0.070823
 1           0        1.657511    2.926804   -1.409694
 1           0        2.272858   -2.181725   -0.398297
 6           0       -1.501063   -1.474174    0.053762
 1           0       -1.676908   -2.388365    0.662723
 6           0       -1.991329   -0.220200    0.819768
 1           0       -3.090518   -0.283087    1.003805
 8           0       -2.230812   -1.531743   -1.189915
 1           0       -3.020379   -2.103423   -1.098766
 8           0       -1.431506   -0.202850    2.122525
 1           0       -0.432071   -0.251960    2.063697
 8           0        0.807962   -2.175913    0.172162
 1           0        0.103991   -1.167601   -1.473891

