# freq rb3lyp/6-31g(d) scrf=check guess=tcheck
geom=(connectivity,allcheck) genchk

glo_2w_beta_ircr_boat2_B3LYP_631Gd

0 1
 C                  0.51880700   -0.70920400    1.26256400
 O                 -0.55141002    0.22420366    0.78850633
 H                 -3.49246200   -0.35642900   -0.73783200
 H                 -0.49579500   -2.60914000   -1.27679100
 O                 -1.00939900   -3.05622500   -0.57782900
 H                 -1.85657300   -2.56545700   -0.59980700
 O                 -2.64639000   -0.80801100   -0.59980200
 H                 -2.26079800   -0.39127000    0.19830400
 C                  0.94743400    1.39765100   -0.75240200
 C                 -0.12992200    1.46416400    0.37705100
 H                  0.56843678    1.89514994   -1.65254194
 H                  0.33009345    1.95370197    1.25134141
 O                  2.13834449    2.08387939   -0.40579648
 H                  2.61656200    1.50461507    0.21871499
 C                 -1.36017976    2.25539258   -0.08433622
 O                 -2.50503368    2.07977570    0.73632326
 H                 -1.66674845    1.91225428   -1.07753104
 H                 -1.07358844    3.31467692   -0.17461708
 H                 -2.25053461    2.24902824    1.65733299
 H                 -0.43142662   -2.35021515    0.86885279
 C                  1.55777400   -0.89566000    0.12170800
 H                  1.65503657   -1.96569075   -0.09552444
 C                  1.18609483   -0.14262808   -1.12927739
 H                  2.02893449   -0.15508513   -1.83018861
 O                  2.80419754   -0.38545210    0.63466767
 H                  3.51618985   -0.67418034    0.04104638
 O                  0.12777291   -0.83092628   -1.79190994
 H                 -0.71443207   -0.67981230   -1.31894036
 O                 -0.09251837   -1.86567317    1.66798649
 H                  1.03118225   -0.27307478    2.13099994

 1 2 1.0 21 1.0 29 1.0 30 1.0
 2 10 1.0
 3 7 1.0
 4 5 1.0
 5 6 1.0
 6
 7 8 1.0
 8
 9 10 1.0 11 1.0 13 1.0 23 1.0
 10 12 1.0 15 1.0
 11
 12
 13 14 1.0
 14
 15 16 1.0 17 1.0 18 1.0
 16 19 1.0
 17
 18
 19
 20 29 1.0
 21 22 1.0 23 1.0 25 1.0
 22
 23 24 1.0 27 1.0
 24
 25 26 1.0
 26
 27 28 1.0
 28
 29
 30

