%NPROCS=4
# opt=maxcycle=1000 freq b3lyp/6-31g(d) geom=connectivity

boat4_Beta_B3LYP_6-31G_d

0 1
 O                  0.00254300   -1.66652700   -0.47865700
 C                  0.49864200    0.77280900    0.23039500
 C                 -1.91460700   -0.08521900   -0.11644900
 C                 -0.94285500    1.10461400   -0.16737300
 C                 -1.18503600   -1.27739600    0.29998700
 C                  0.97436300   -0.47672400   -0.52951300
 H                 -0.93736100    1.52672300   -1.18116500
 H                  1.07462500   -0.23626500   -1.59531200
 H                  0.56565500    0.63800400    1.31552300
 H                 -1.85718800   -2.13476100    0.17015800
 C                  2.32849100   -0.97456800   -0.01771600
 H                  2.26007500   -1.24128500    1.04243500
 H                  2.64288500   -1.87928800   -0.54973500
 H                 -2.73549300    0.14200400    0.57421400
 O                 -0.83177100   -1.27046100    1.67563700
 H                 -0.74515700   -2.20549700    1.92883300
 O                  3.33212500    0.02820200   -0.16317400
 H                  3.65683000   -0.02831100   -1.08138000
 O                 -2.49871700   -0.25842100   -1.42031800
 H                 -3.27586500   -0.83433200   -1.31695200
 O                 -1.41949400    2.17661500    0.66826100
 H                 -0.71008900    2.84934700    0.63906900
 O                  1.32299100    1.91423700   -0.06438400
 H                  2.24567500    1.63339200    0.11940300
 O                  0.37090509   -4.43331144   -0.66745130
 H                  1.29299532   -4.65401665   -0.81791332
 H                  0.28188777   -3.48329218   -0.56190834
 O                 -0.32416037   -3.99258332    1.97795365
 H                  0.50922143   -3.93489074    2.45097198
 H                 -0.15363871   -4.06530201    1.03602247

 1 5 1.0 6 1.0
 2 4 1.0 6 1.0 9 1.0 23 1.0
 3 4 1.0 5 1.0 14 1.0 19 1.0
 4 7 1.0 21 1.0
 5 10 1.0 15 1.0
 6 8 1.0 11 1.0
 7
 8
 9
 10
 11 12 1.0 13 1.0 17 1.0
 12
 13
 14
 15 16 1.0
 16
 17 18 1.0
 18
 19 20 1.0
 20
 21 22 1.0
 22
 23 24 1.0
 24
 25 26 1.0 27 1.0
 26
 27
 28 29 1.0 30 1.0
 29
 30

