%NPROCS=22
# opt=(modredundant,MaxCycle=1000) freq B3LYP/6-31G(d)

boat4_Alpha_B3LYP_6-31G_d

0 1
 O                 -1.48972232    0.34213704    0.24947611
 C                  0.92286668    0.42141904   -0.34325289
 C                 -0.28321832   -1.80018496   -0.08547389
 C                  1.06682168   -1.06014896    0.03405111
 C                 -1.43903132   -0.88770396   -0.51743789
 C                 -0.26520932    1.07123304    0.39370811
 H                  1.36518168   -1.10799896    1.09214411
 H                 -0.00843132    1.09116204    1.46416211
 H                  0.78347268    0.49165804   -1.43249189
 C                 -0.54468232    2.50259704   -0.09386389
 H                 -0.75735832    2.48784704   -1.16717189
 H                 -1.42938332    2.90349704    0.41906911
 H                 -0.16782932   -2.57566696   -0.85604489
 O                  0.58015768    3.37788204    0.06990411
 H                  0.66013868    3.58967804    1.01393411
 O                 -0.58031332   -2.36574696    1.18157311
 H                 -1.52793032   -2.58753696    1.15086211
 O                  1.99018568   -1.72025496   -0.80507089
 H                  2.89967668   -1.41977896   -0.57796789
 O                  2.11858768    1.11225104    0.03747811
 H                  1.95562868    2.06253004   -0.12908789
 H                 -1.33651032   -0.61572696   -1.58047589
 O                 -2.61983132   -1.57500896   -0.28437689
 H                 -3.37220832   -0.96539696   -0.47127389
 O                 -4.88202669   -0.35277190   -1.21238051
 H                 -4.69982069    0.48513110   -0.71573751
 H                 -5.79270769   -0.59518090   -0.98743151
 O                 -3.89932082    1.59585642    0.39055878
 H                 -3.03404182    1.15585942    0.21833578
 H                 -4.12918282    1.29821142    1.28454778

D 2 4 3 5 F
D 2 6 1 5 F

