%NPROCS=4
# opt=maxcycle=1000 freq b3lyp/6-31g(d) geom=connectivity

boat2_Alpha_B3LYP_6-31G_d

0 1
 H                  0.95827800    1.20905800    0.94578700
 C                  1.00072200    0.54170200    0.07653300
 C                 -0.64902500   -1.37163900   -0.36231300
 C                 -1.34548200    1.08475200   -0.63643000
 C                 -1.78765300   -0.34018800   -0.26679300
 O                  0.08070400    1.07583700   -0.94158100
 C                  0.55848100   -0.88326500    0.44610400
 H                 -1.00194300   -2.31385200    0.07536700
 H                 -2.60558900   -0.64540900   -0.92981100
 H                  1.38216400   -1.59853600    0.33750800
 C                  2.40802600    0.56388200   -0.51611600
 H                  2.65922100    1.57417400   -0.85690700
 H                  2.48054600   -0.10225700   -1.38306600
 O                  3.35947100    0.16222700    0.46481300
 H                  4.23240400    0.19572000    0.03347900
 O                 -2.35008900   -0.34538500    1.06191900
 H                 -1.60636100   -0.48756800    1.68797700
 O                 -0.25340700   -1.65666400   -1.70551700
 H                 -1.05848600   -1.69245600   -2.25249800
 O                  0.19080400   -0.88885100    1.84459800
 H                  1.03054700   -0.80438000    2.33904800
 H                 -1.86512000    1.42408600   -1.53975800
 O                 -1.58287800    2.00571700    0.40453600
 H                 -1.27292500    2.84690600    0.06682400
 H                 -0.60183077    3.83938741   -1.90702325
 O                 -0.24893443    3.71823257   -1.01231725
 H                  0.28593057    2.90044744   -1.06107492
 O                  0.10199456   -3.49565395    0.99420649
 H                  1.02446760   -3.66250895    0.74979669
 H                  0.13566364   -2.72026178    1.59080053

 1 2 1.0
 2 6 1.0 7 1.0 11 1.0
 3 5 1.0 7 1.0 8 1.0 18 1.0
 4 5 1.0 6 1.0 22 1.0 23 1.0
 5 9 1.0 16 1.0
 6
 7 10 1.0 20 1.0
 8
 9
 10
 11 12 1.0 13 1.0 14 1.0
 12
 13
 14 15 1.0
 15
 16 17 1.0
 17
 18 19 1.0
 19
 20 21 1.0
 21
 22
 23 24 1.0
 24
 25 26 1.0
 26 27 1.0
 27
 28 29 1.0 30 1.0
 29
 30

