# opt=(TS,CalcFC,NoEigenTest,MaxCycle=500,cartesian) Freq B3LYP 6-31G(d)

glo_1w_beta_boat__B3LYP_631Gd

0 1
 C                  1.60420600   -0.38218700   -1.21690100
 O                  0.84201400    1.06476800   -0.88686800
 H                  3.19894300    1.79445200    0.52462300
 O                  2.74862300   -0.12049700   -0.70864500
 H                  2.60506300    0.31580100    0.76353400
 O                  2.42325400    1.40797400    0.99717300
 H                  1.56139200    1.50260600    0.11728100
 C                 -0.62948900    0.22736800    0.84323500
 C                 -0.53537400    0.94489600   -0.52236600
 C                 -1.12589800    2.36238100   -0.46771900
 O                 -2.52243000    2.25028000   -0.14335900
 O                 -1.99270900   -0.18583000    1.05441000
 H                  1.48090200   -0.36145400   -2.30977100
 H                 -2.58684700    0.62330300    1.01569700
 H                 -0.33372000    0.90108600    1.68001500
 H                 -1.02400500    0.32904200   -1.31945500
 H                 -0.98177000    2.90074900   -1.42009300
 H                 -0.71428000    2.97263100    0.35818100
 H                 -3.04518100    2.05850200   -0.95260200
 O                 -2.39952000   -2.37042200   -0.09181000
 H                 -2.41579100   -1.46191500   -0.43878000
 H                 -2.49482300   -2.27027200    0.86087300
 C                  0.20119300   -1.07436200    0.87888000
 H                 -0.41731600   -1.90175600    1.30347800
 C                  0.79411700   -1.49179000   -0.48727900
 H                  1.46651600   -2.37250800   -0.34383500
 O                  1.35771500   -0.87412900    1.70987800
 H                  1.09948100   -0.70147000    2.63953800
 O                 -0.26227500   -1.82874600   -1.38380200
 H                 -0.80848700   -2.59379900   -1.02160300

