# b3lyp/6-31g(d) irc=(calcfc,forward)

glo_1w_alpha_ts_boat6_B3LYP_631Gd

0 1
  6  -0.458760     0.850414     0.141956
  6   1.484663    -0.770786     0.079855
  6   1.051103     0.724842    -0.039900
  6   0.354813    -1.787945     0.350292
  1   0.752081    -2.783088     0.087210
  1   2.151806    -0.842265     0.941790
  1  -0.753150     0.467345     1.124631
  1   1.259751     1.034446    -1.079867
  6  -0.958587    -1.604960    -0.456840
  8  -1.002399     0.005625    -0.898483
  6  -0.979519     2.266975     0.002544
  1  -0.400392     2.909912     0.674678
  1  -0.846374     2.617083    -1.031446
  8  -2.371457     2.263404     0.365968
  1  -2.708823     3.167078     0.277472
  8   0.040396    -1.719071     1.724482
  1  -0.927572    -1.903745     1.735758
  8   2.294955    -1.164384    -1.047038
  1   1.779845    -1.004500    -1.854840
  8   1.722082     1.566848     0.868105
  1   2.668653     1.531361     0.602549
  8  -3.389433    -0.102901    -0.725213
  1  -3.080819    -0.996870    -0.217885
  1  -2.262750     0.113249    -0.971708
  1  -3.539802     0.598465    -0.058170
  8   4.145743     0.852175    -0.357696
  1   4.814687     0.461586     0.224457
  1   3.699140     0.082779    -0.774216
  8  -2.024005    -1.893057     0.237202
  1  -0.895612    -1.993192    -1.486479
 
