%NPROCS=4
# opt=(MaxCycle=1000) freq B3LYP/6-31G(d)

 ./boats/3/glo_1w_alpha_ts_boat3_B3LYP_631Gd_r.out

0  1
C          -0.48432        -0.19799         0.93808
C           0.68902         1.45765        -0.67479
O           1.05865        -0.97403        -0.84007
C           1.80433         0.43091        -0.58468
C          -0.18335        -1.25334        -0.13632
C          -0.42747         1.24608         0.37283
H          -0.21667         1.90000         1.23188
H           0.22876         1.27373        -1.65577
H          -0.04934        -2.21378         0.38446
H          -1.49699        -0.37599         1.31206
C          -1.27770        -1.40197        -1.20639
H          -0.94771        -2.12548        -1.96339
H          -1.46336        -0.44390        -1.69249
O          -2.54350        -1.79691        -0.65548
H          -2.43217        -2.64365        -0.19452
O           1.24364         2.76243        -0.63367
H           0.50279         3.37361        -0.77599
O          -1.62112         1.63900        -0.29458
H          -2.40539         1.35553         0.22908
O           0.36024        -0.35559         2.06290
H           1.24748        -0.03418         1.80438
H           2.44103         0.44150        -1.47609
O           2.51200         0.39408         0.57440
O           3.00171        -1.95336         0.23369
H           2.99283        -0.50209         0.56547
H           2.17651        -1.83253        -0.32228
H           3.71849        -2.17450        -0.37997
O          -3.85832         0.31590         0.68288
H          -4.62383         0.62873         0.17748
H          -3.53883        -0.47576         0.19680

