%NPROCS=4
# opt=(MaxCycle=1000) freq B3LYP/6-31G(d)

 ./boats/3/glo_2w_alpha_ts_boat3_B3LYP_631Gd.out

0  1
C           1.02453         0.22745         1.09137
C           0.46809        -1.50584        -0.74938
O          -0.52557         0.67911        -0.78844
C          -0.89649        -0.83423        -0.65660
C           0.51508         1.24214         0.06007
C           1.35137        -1.15381         0.45942
H           1.16772        -1.90220         1.24192
H           0.94428        -1.07479        -1.64095
H           0.05777         2.06996         0.62104
H           1.94561         0.64331         1.51573
C           1.62252         1.80705        -0.84739
H           1.15906         2.41059        -1.64224
H           2.17964         0.99420        -1.31832
O           2.58311         2.55224        -0.10744
H           2.13993         3.33881         0.24845
O           0.30525        -2.90394        -0.90999
H           1.19835        -3.26824        -1.02067
O           2.69324        -1.25613        -0.03040
H           3.29590        -1.15335         0.72305
O           0.11807         0.08637         2.17089
H          -0.65242        -0.40141         1.81147
H          -1.47613        -0.96902        -1.57589
O          -1.60341        -1.11903         0.46045
O          -2.64043         1.90010        -0.54480
H          -1.74447         1.46048        -0.69790
H          -2.98003         2.13361        -1.42134
O          -3.81109        -0.05507         0.32744
H          -2.57309        -0.77010         0.39554
H          -3.44888         0.84153         0.01151
H          -4.13370         0.07811         1.23131

