%NPROCS=4
# opt=(MaxCycle=1000) freq B3LYP/6-31G(d)

 ./boats/3/glo_1w_beta_ts_boat3_B3LYP_631Gd.out

0  1
C          -0.77099        -0.57249         0.15363
C          -0.28031         1.85386        -0.06405
O           1.44699         0.28461         0.79074
C           1.16897         1.33056        -0.15550
C           0.60489        -0.89257         0.75693
C          -1.17296         0.82594         0.62188
H           1.84711         2.13290         0.15778
H          -1.02641         0.90344         1.70713
H          -0.63922         1.99279        -1.09407
H           0.44770        -1.16582         1.80781
H          -0.69643        -0.56840        -0.94316
C           1.28140        -2.08225         0.06365
H           2.30758        -2.18850         0.43317
H           1.33866        -1.89258        -1.02056
O           1.40311         0.91738        -1.46842
O           0.60015        -3.28852         0.36162
H          -0.35309        -3.08189         0.35582
O          -0.26008         3.09073         0.63327
H          -1.18147         3.39182         0.68862
O          -2.54273         1.15214         0.31216
H          -3.09109         0.67048         0.95405
O          -1.69259        -1.57755         0.56894
H          -2.40840        -1.58242        -0.10937
O           3.89824         0.06388        -0.58781
H           2.35057         0.65244        -1.50078
H           3.31993        -0.00568         0.19819
H           4.59736         0.68668        -0.33748
O          -3.51560        -0.86904        -1.37875
H          -3.26655         0.03951        -1.10863
H          -3.23198        -0.95211        -2.30175

