%NPROCS=4
# opt=(calcfc,ts,noeigentest,maxcycle=1000,cartesian) b3lyp 6-31g(d) freq

 ./4/glo_1w_alpha_boat4_b3lyp_631Gd_iopt.out

0  1
O          -1.32680         0.96322        -0.32406
C           1.04955         0.24258        -0.31079
C          -0.83922        -1.45905        -0.30835
C           0.64050        -1.19600         0.04181
C          -1.52832        -0.28405        -1.02779
C          -0.00838         1.26402         0.13989
H           0.74086        -1.30375         1.13387
H          -0.01430         1.25810         1.24281
H           1.18372         0.30182        -1.40204
C           0.30191         2.68531        -0.35770
H           0.35642         2.68214        -1.45022
H          -0.50830         3.36407        -0.06388
H          -0.85307        -2.31347        -0.99368
O           1.57443         3.16931         0.09961
H           1.48280         3.42229         1.03216
O          -1.54094        -1.80364         0.89938
H          -2.34130        -2.28061         0.62452
O           1.40964        -2.15199        -0.65328
H           2.33613        -2.12417        -0.31636
O           2.28564         0.54125         0.34884
H           2.45625         1.49431         0.19897
H          -1.11816        -0.19908        -2.04329
O          -2.89350        -0.46970        -1.16097
H          -3.30289        -0.30113        -0.27740
O          -3.44336         0.23178         1.49374
H          -2.96192         1.01823         1.18406
H          -2.71229        -0.39172         1.67888
O           3.93576        -1.66495         0.38211
H           3.59212        -0.74525         0.38956
H           3.96075        -1.92093         1.31659

