%NPROCS=4
# opt=(calcfc,ts,noeigentest,maxcycle=1000,cartesian) b3lyp 6-31g(d) freq

 ./4/glo_1w_beta_boat4_b3lyp_631Gd_iopt.out

0  1
O          -1.54116         0.19489         0.32263
C           0.83689         0.55195        -0.36065
C          -0.24897        -1.62657        -0.76854
C           0.90553        -0.93905        -0.03303
C          -1.58001        -0.86649        -0.63376
C          -0.45627         1.13579         0.24939
H           0.75806        -1.07200         1.05158
H          -0.22318         1.37626         1.29452
H           0.83558         0.66693        -1.45405
H          -2.34400        -1.53989        -0.23197
C          -0.89579         2.41623        -0.46985
H          -1.07567         2.20517        -1.52704
H          -1.82525         2.80269        -0.03165
H           0.01480        -1.64037        -1.83596
O          -1.91986        -0.37755        -1.91061
H          -2.81370        -0.00247        -1.85068
O           0.15134         3.39886        -0.42348
H           0.10730         3.83783         0.44060
O          -0.43857        -2.94410        -0.28395
H           0.44421        -3.35170        -0.31145
O           2.07232        -1.59599        -0.47580
H           2.82681        -1.32760         0.09963
O           1.95399         1.26496         0.18199
H           1.83013         2.18991        -0.10287
O          -3.09135        -0.52857         2.65745
H          -3.94191        -0.14192         2.40990
H          -2.49454        -0.25387         1.94108
O           3.97509        -0.37805         1.10054
H           3.77276        -0.46460         2.04427
H           3.46574         0.40895         0.81269

