# b3lyp/6-31g(d) opt freq

glo_1w_beta_ircf_boat5_B3LYP_631Gd

0 1
  8   1.163732     0.695705    -0.494808
  6   0.531291    -1.075097     1.026859
  6  -1.265941     0.590007     0.001532
  6  -0.916379    -0.830180     0.543585
  6  -0.139634     1.568579     0.267858
  6   1.600832    -0.522164     0.084403
  1  -1.575803    -0.986244     1.411632
  1   2.506320    -0.366408     0.696977
  1   0.688845    -2.161718     1.122528
  1  -1.329342     0.516119    -1.092744
  6   1.935618    -1.499705    -1.062328
  1   2.678923    -1.029242    -1.722136
  1   1.033144    -1.682772    -1.648914
  1   0.225198     1.609969     1.296059
  8  -0.211605     2.722733    -0.380279
  8   2.375104    -2.774843    -0.599518
  1   3.237291    -2.655495    -0.170858
  8  -2.472036     1.062809     0.561712
  1  -3.187261     0.540897     0.132437
  8  -1.280566    -1.760187    -0.498747
  1  -1.114216    -2.662000    -0.177783
  8   0.739407    -0.442569     2.292523
  1   0.053214    -0.751898     2.905730
  8   2.211985     2.880157    -0.496476
  1   2.049740     1.886076    -0.552133
  1   2.447911     3.150785    -1.396548
  1   0.723662     3.113746    -0.341617
  8  -3.919323    -0.844656    -0.889808
  1  -3.081594    -1.355287    -0.902979
  1  -4.031824    -0.533878    -1.800979
 
