# b3lyp/6-31g(d) opt freq

glo_1w_beta_ircf_boat6_B3LYP_631Gd

0 1
  6   0.875886     0.771256    -0.558507
  6  -1.426305    -0.381204    -0.554515
  6  -0.573737     0.820700    -0.054388
  6  -0.586554    -1.585984    -1.032489
  1  -1.243129    -2.469538    -1.021504
  1  -2.042519    -0.022481    -1.387212
  1   0.902794     0.768960    -1.648590
  1  -0.540956     0.743199     1.044211
  6   0.487379    -1.866895     0.004078
  1   1.280879    -2.553581    -0.326034
  8   1.504408    -0.470287    -0.159013
  6   1.702615     1.931066    -0.033972
  1   1.230172     2.855670    -0.386774
  1   1.666766     1.938916     1.070213
  8   3.031559     1.777345    -0.508549
  1   3.524309     2.576706    -0.270248
  8   0.051155    -1.930702     1.209833
  8  -0.003141    -1.401637    -2.311847
  1  -0.721273    -1.375604    -2.962903
  8  -2.326647    -0.825196     0.470158
  1  -1.726165    -1.284596     1.104824
  8  -1.119831     2.061494    -0.452088
  1  -1.970993     2.150888     0.039089
  8   2.052569    -0.861931     2.223142
  1   1.242614    -1.452534     2.117668
  1   1.806051    -0.179920     2.865948
  1   1.895482    -0.422805     0.792473
  8  -3.415308     1.651718     1.038687
  1  -4.241896     1.727450     0.538832
  1  -3.192325     0.691568     1.008895
 
