# b3lyp/6-31g(d) opt freq

glo_1w_alpha_ircf_boat6_B3LYP_631Gd

0 1
  6  -0.448282     0.858457     0.133640
  6   1.492558    -0.754892     0.071455
  6   1.060187     0.742151    -0.045684
  6   0.357823    -1.773899     0.340366
  1   0.751684    -2.769529     0.079585
  1   2.157052    -0.831168     0.934956
  1  -0.742414     0.489889     1.121368
  1   1.267256     1.050652    -1.086238
  6  -0.931993    -1.529156    -0.488102
  8  -0.971672    -0.010273    -0.896961
  6  -0.973838     2.277848    -0.008822
  1  -0.388325     2.917035     0.662336
  1  -0.839390     2.630119    -1.042375
  8  -2.362728     2.279534     0.357793
  1  -2.697843     3.183990     0.268207
  8   0.047539    -1.703523     1.716845
  1  -0.913130    -1.887760     1.758703
  8   2.302094    -1.149331    -1.055007
  1   1.789050    -0.980924    -1.862639
  8   1.731887     1.582842     0.860768
  1   2.678161     1.550833     0.594791
  8  -3.399098    -0.086654    -0.731568
  1  -2.802254    -1.255467    -0.094379
  1  -2.494534     0.166620    -1.059472
  1  -3.549463     0.616001    -0.074475
  8   4.153866     0.867996    -0.366080
  1   4.822903     0.477093     0.215801
  1   3.707409     0.099204    -0.782936
  8  -2.036421    -1.864992     0.228897
  1  -0.889753    -1.983948    -1.485840
 
