# b3lyp/6-31g(d) opt freq

glo_2w_alpha_ircr_boat6_B3LYP_631Gd

0 1
  6  -0.128166     0.983808    -0.208604
  6  -2.183049    -0.247189     0.609525
  6  -1.675671     1.029565    -0.102010
  6  -1.431436    -1.481354     0.070301
  1  -1.841127    -2.392400     0.527660
  1  -3.249526    -0.348136     0.388839
  1   0.142664     0.587758    -1.192928
  1  -1.993211     1.883613     0.508884
  6   0.086438    -1.383725     0.419478
  8   0.370613     0.072622     0.796671
  6   0.467357     2.378437    -0.087380
  1  -0.139136     3.029965    -0.729857
  1   0.390522     2.735750     0.949914
  8   1.834769     2.396038    -0.534914
  1   2.146606     3.313819    -0.512663
  8  -1.596998    -1.524141    -1.345616
  1  -0.729503    -1.825117    -1.686475
  8  -2.069643    -0.155920     2.023347
  1  -1.131818     0.036925     2.195643
  8  -2.249235     1.212168    -1.383158
  1  -2.149263     0.345100    -1.823096
  8   3.278066    -1.709267    -0.323278
  1   1.842541    -1.855117    -0.467682
  1   3.296726    -0.801722     0.140887
  1   3.665083    -1.585771    -1.202613
  8   0.823957    -1.814226    -0.635487
  1   0.325294    -1.882713     1.364598
  8   2.917538     0.393915     0.886019
  1   2.863265     1.186704     0.315794
  1   1.958983     0.237524     1.068433
 
