# b3lyp/6-31g(d) opt freq

glo_1w_alpha_ircr_boat6_B3LYP_631Gd

0 1
  6  -0.450327     0.882633     0.135613
  6   1.490334    -0.753782     0.069088
  6   1.057467     0.742580    -0.049347
  6   0.369785    -1.779797     0.346963
  1   0.788123    -2.770389     0.092784
  1   2.156633    -0.823341     0.931818
  1  -0.754635     0.481509     1.107855
  1   1.266764     1.051604    -1.089244
  6  -0.953599    -1.679041    -0.443407
  8  -0.979767     0.065571    -0.926422
  6  -0.969727     2.296742     0.001643
  1  -0.393994     2.942812     0.674029
  1  -0.832490     2.643552    -1.033010
  8  -2.360125     2.283591     0.359811
  1  -2.704895     3.183629     0.263161
  8   0.052597    -1.702272     1.718128
  1  -0.914467    -1.887492     1.734696
  8   2.302482    -1.148181    -1.055343
  1   1.790821    -0.989913    -1.865653
  8   1.728947     1.581725     0.858744
  1   2.675626     1.546303     0.593318
  8  -3.432652    -0.067192    -0.746022
  1  -3.232778    -0.913020    -0.265032
  1  -2.017964     0.158247    -0.986871
  1  -3.540639     0.627478    -0.070659
  8   4.152970     0.868218    -0.365545
  1   4.824843     0.480527     0.215238
  1   3.711068     0.097563    -0.783968
  8  -1.993256    -1.905059     0.235906
  1  -0.902037    -1.990516    -1.498728
 
