%NPROCS=12
# opt=(TS,CalcFC,NoEigenTest,MaxCycle=500,cartesian) Freq B3LYP 6-31G(d)

boat1_Alpha_B3LYP_6-31G_d

0 1
1           0       -0.375947   -0.887129    1.073301
6           0       -0.710133   -0.820158    0.031026
6           0       -1.161039    1.724251    0.107203
6           0        1.125923    1.062631   -0.820851
6           0        0.364206    1.776398    0.292958
8           0        0.384002   -0.535807   -0.841293
6           0       -1.756018    0.304998   -0.075469
1           0        0.651775    2.837804    0.197630
1           0       -2.173382    0.260811   -1.099832
6           0       -1.266790   -2.173451   -0.431549
1           0       -0.501249   -2.946139   -0.272470
1           0       -1.475774   -2.097667   -1.510418
1           0       -1.628664    2.137487    1.015982
8           0       -2.460876   -2.476070    0.308124
1           0       -2.809444   -3.327609    0.008813
8           0        0.785346    1.244398    1.539191
1           0        0.198270    1.589913    2.230563
8           0       -1.430865    2.572574   -1.007993
1           0       -2.386724    2.550084   -1.170287
8           0       -2.777464    0.161002    0.903421
1           0       -3.074001   -0.767668    0.858172
1           0        0.752958    1.364188   -1.809312
8           0        2.396289    0.907571   -0.724816
8           0        2.134700   -2.149180   -0.353392
1           0        2.615788   -2.367670   -1.162042
1           0        2.837374   -1.453580    0.343950
1           0        1.306587   -1.383127   -0.647861
8           0        3.376332   -0.539891    0.957160
1           0        4.321421   -0.509477    0.730758
1           0        2.904399    0.274991    0.349924

