%NPROCS=12
# opt=(TS,CalcFC,NoEigenTest,MaxCycle=500,cartesian) Freq B3LYP 6-31G(d)

boat1_Alpha_B3LYP_6-31G_d

0 1
 H                 -0.98217353    1.76307893    0.85045366
 C                 -0.97227726    0.92300032    0.14262987
 C                  0.91753674   -0.80133268    0.12838587
 C                 -1.42616026   -1.73298468    0.09027287
 C                 -0.02702626   -1.83726268   -0.48979913
 O                 -1.59648824   -0.22943257    0.73084014
 C                  0.49742974    0.63087332   -0.22386913
 H                 -0.09818426   -1.64434168   -1.57275713
 H                  0.64050174    0.76923132   -1.30728313
 C                 -1.83106402    1.27234390   -1.07738012
 H                 -2.86023209    1.47171016   -0.74889816
 H                 -1.84408881    0.40839533   -1.75639476
 H                  0.88780774   -0.91562168    1.22141687
 O                 -1.27648643    2.42776813   -1.72193739
 H                 -1.72121713    2.55107232   -2.57360433
 O                  0.45437274   -3.14335068   -0.24512313
 H                  1.42124074   -3.05340668   -0.34433213
 O                  2.19893374   -1.12533068   -0.38611713
 H                  2.88317574   -0.71081768    0.19198387
 O                  1.34348674    1.52855432    0.50449987
 H                  0.97298974    2.42611832    0.39040887
 H                 -2.19317934   -1.45232080   -0.64861166
 O                 -1.77097143   -2.49401004    1.06691767
 O                 -0.65992364   -0.99702034    2.24466808
 H                 -1.40719041   -1.93691561    2.06557135
 H                 -1.65298724   -0.46989596    1.82518676
 H                 -0.10283683   -0.87896406    3.03091148
 O                  3.91123000    0.51621200    1.02501900
 H                  3.18355800    1.14159000    0.81315000
 H                  3.76563000    0.28799400    1.95583400

