%NPROCS=18
# opt=(TS,CalcFC,NoEigenTest,MaxCycle=500,cartesian) Freq B3LYP 6-31G(d)

boat1_Alpha_B3LYP_6-31G_d

0 1
1           0       -0.889219    0.996787    1.001422
6           0       -0.795860    1.014841   -0.092464
6           0        1.052757   -0.749841   -0.078185
6           0       -1.309476   -1.626694   -0.136943
6           0        0.093094   -1.770652   -0.698300
8           0       -1.691394    0.057871   -0.681500
6           0        0.670014    0.689044   -0.446947
1           0        0.043116   -1.590910   -1.784722
1           0        0.824136    0.817239   -1.530112
6           0       -1.249896    2.381549   -0.617349
1           0       -2.296966    2.547647   -0.329187
1           0       -1.187652    2.379293   -1.714132
1           0        1.005789   -0.852027    1.015476
8           0       -0.407578    3.397438   -0.053856
1           0       -0.604415    4.238604   -0.488028
8           0        0.540786   -3.083958   -0.428083
1           0        1.511638   -3.013325   -0.497747
8           0        2.331062   -1.111720   -0.573491
1           0        3.022635   -0.704007   -0.000360
8           0        1.532125    1.570212    0.282958
1           0        1.179196    2.474726    0.169319
1           0       -2.095368   -2.046586   -0.783787
8           0       -1.490282   -1.652103    1.134734
8           0       -3.399362   -0.233890    0.978380
1           0       -2.678917    0.053086    0.014537
1           0       -2.604713   -1.069462    1.261445
1           0       -4.225403   -0.651831    0.685375
8           0        3.964216    0.471938    0.934811
1           0        3.229698    1.097607    0.751840
1           0        3.966067    0.367378    1.898167

