%NPROCS=4
# opt=maxcycle=1000 freq b3lyp/6-31g(d)

boat1_Alpha_B3LYP_6-31G_d

0 1
 H                  1.68454760   -0.48188620   -1.50342967
 C                  1.14812060   -0.55559020   -0.54915767
 C                 -0.73435540    1.09752280   -0.20697667
 C                 -1.26336675   -1.37852048    0.20817594
 C                 -1.51361640    0.03753880    0.56147433
 O                  0.10566695   -1.38011693   -0.93723628
 C                  0.76861560    0.86061880   -0.08771767
 H                 -1.34054940    0.14831680    1.63909433
 H                  1.07021760    1.03267580    0.95311233
 C                  2.08387860   -1.24716520    0.44666633
 H                  2.31743160   -2.26149620    0.10606333
 H                  1.62858360   -1.32467620    1.43852833
 H                 -1.04463440    1.12163380   -1.25921067
 O                  3.29670760   -0.50656120    0.56480633
 H                  3.87351960   -1.01299920    1.16520633
 O                 -2.92171140    0.27575280    0.37906533
 H                 -3.03076440    1.23735180    0.52737133
 O                 -1.06712640    2.39625680    0.31964233
 H                 -0.41660740    3.00174880   -0.09222867
 O                  1.45148360    1.86606880   -0.85317867
 H                  2.40609260    1.68589680   -0.74145867
 H                 -0.98928575   -2.00052248    1.06795294
 O                 -2.25151295   -1.93653407   -0.38392872
 O                 -0.08744670   -2.97188108   -2.61550357
 H                  0.27939290   -2.09010179   -1.88894044
 H                 -1.29266504   -3.00215552   -2.52457786
 H                  0.47074710   -3.66954579   -2.96662126
 O                 -2.38978870   -3.34353854   -2.19684377
 H                 -2.56639908   -2.44065619   -1.42638141
 H                 -2.63534636   -4.14418859   -2.66616342

