%NPROCS=4
# opt=(calcfc,ts,noeigentest,maxcycle=500,cartesian) freq b3lyp/6-31g(d)

boat1_Alpha_B3LYP_6-31G_d

0 1
 H                 -0.86404539   -0.53640492    1.72348308
 C                 -1.19823139   -0.46943392    0.68120808
 C                 -1.64913739    2.07497508    0.75738508
 C                  0.63782461    1.41335508   -0.17066892
 C                 -0.12389239    2.12712208    0.94314008
 O                 -0.10409639   -0.18508292   -0.19111092
 C                 -2.24411639    0.65572208    0.57471308
 H                  0.16367661    3.18852808    0.84781208
 H                 -2.66148039    0.61153508   -0.44964992
 C                 -1.75488839   -1.82272692    0.21863308
 H                 -0.98934739   -2.59541492    0.37771208
 H                 -1.96387239   -1.74694292   -0.86023592
 H                 -2.11676239    2.48821108    1.66616408
 O                 -2.94897439   -2.12534592    0.95830608
 H                 -3.29754239   -2.97688492    0.65899508
 O                  0.29724761    1.59512208    2.18937308
 H                 -0.28982839    1.94063708    2.88074508
 O                 -1.91896339    2.92329808   -0.35781092
 H                 -2.87482239    2.90080808   -0.52010492
 O                 -3.26556239    0.51172608    1.55360308
 H                 -3.56209939   -0.41694392    1.50835408
 H                  0.26485961    1.71491208   -1.15912992
 O                  1.90819061    1.25829508   -0.07463392
 O                  1.70884528   -0.45990981    1.34671199
 H                  1.45142273   -1.14724463    1.98090793
 H                  2.82014927   -0.10816254    1.63180370
 H                  0.85589568   -0.50831124    0.50401734
 O                  3.58976440    0.66927164    1.13856069
 H                  3.07795806    1.10385079    0.14397775
 H                  3.57550478    1.40921346    1.76560356

