%NPROCS=12
# opt=(TS,CalcFC,NoEigenTest,MaxCycle=500,cartesian) Freq B3LYP 6-31G(d)

boat1_Alpha_B3LYP_6-31G_d

0 1
 H                  0.01392061    1.51047970    1.03030350
 C                  0.15324600    1.12069800    0.01337100
 C                  1.50189810   -0.96625062   -0.46415598
 C                 -0.77556782   -0.84476763   -1.48246297
 C                  0.68385604   -1.22995985   -1.72502563
 O                 -0.79885310    0.07856321   -0.25576335
 C                  1.56322200    0.51725000   -0.10545800
 H                  1.07502030   -0.61008056   -2.54683956
 H                  2.09588737    1.04557740   -0.91550689
 C                 -0.10976020    2.23071946   -1.00691089
 H                 -1.13416574    2.60643080   -0.88133550
 H                 -0.01360248    1.81128678   -2.01941382
 H                  1.03667855   -1.50770986    0.37028960
 O                  0.84745232    3.27395920   -0.78823873
 H                  0.73414729    3.94444161   -1.47808592
 O                  0.71879287   -2.60212652   -2.07537223
 H                  1.63462403   -2.88352190   -1.90562898
 O                  2.81084549   -1.47576462   -0.71777394
 H                  3.33069867   -1.28899338    0.08132959
 O                  2.29372599    0.59104721    1.11139070
 H                  2.18018368    1.49571484    1.45717086
 H                 -1.06145332    0.11274962   -1.94878552
 O                 -1.64426785   -1.78757256   -1.45349327
 O                 -0.97041873   -1.62420960    1.66012852
 H                 -1.59522371   -1.50690178    2.37947378
 H                 -1.58787871   -2.33747221    0.94926231
 H                 -0.78721622   -0.56848474    1.11986760
 O                 -2.04417905   -3.27672491    0.26107586
 H                 -2.52125909   -4.09530152    0.41575937
 H                 -2.21031704   -2.95487700   -0.88295740

