%NPROCS=18
# opt=(TS,CalcFC,NoEigenTest,MaxCycle=500,cartesian) Freq B3LYP 6-31G(d)

 glo_2w_beta_ts_boat1_B3LYP_631Gd.log

0  1
H           0.34624         1.58428         1.55356
C           0.05064         1.10753         0.61012
C           1.90269        -0.53987         0.24996
C          -0.49113        -1.37745        -0.19740
C           1.01770        -1.67425        -0.27645
O          -0.60398        -0.12609         0.95883
C           1.34706         0.81560        -0.17031
H          -1.00683        -2.11529         0.43785
H           1.24330        -1.80639        -1.34682
H           1.14175         0.79651        -1.25128
C          -0.86433         2.05805        -0.16671
H          -1.76266         2.29780         0.41907
H          -1.16806         1.57139        -1.10262
O          -1.06200        -1.00987        -1.30157
H           1.91293        -0.59676         1.35067
O          -0.07866         3.23181        -0.41375
H          -0.57726         3.81865        -1.00386
O           1.25215        -2.88326         0.44219
H           2.20179        -3.06846         0.35428
O           3.21131        -0.74425        -0.26721
H           3.67676         0.10242        -0.14475
O           2.34136         1.79382         0.11919
H           1.98210         2.63720        -0.20689
O          -2.99512         0.03803         1.29858
H          -2.35115        -1.02281        -1.16286
H          -1.77342        -0.01266         1.19889
H          -3.27514        -0.56445         2.00913
O          -3.45696        -0.95136        -0.86343
H          -3.33863        -0.41946         0.28739
H          -3.89235        -0.33029        -1.46968

