# b3lyp/6-31g(d) opt freq

glo_1w_beta_ircr_boat2_B3LYP_631Gd

0 1
  6   1.714965    -0.679785    -1.093624
  8   0.927867     1.068256    -0.836963
  1   3.355222     1.938465     0.507898
  8   2.857329    -0.557810    -0.624678
  1   2.907832     0.444259     0.558437
  8   2.660011     1.365846     0.869131
  1   1.535799     1.381099    -0.071519
  6  -0.666933     0.299507     0.835924
  6  -0.439013     1.050200    -0.488652
  6  -0.936647     2.492298    -0.442491
  8  -2.349135     2.550519    -0.185589
  8  -2.070618     0.085873     1.055716
  1   1.548116    -0.590532    -2.180437
  1  -2.506034     0.938175     0.840641
  1  -0.270512     0.922782     1.654533
  1  -0.953672     0.501872    -1.283312
  1  -0.679664     3.003211    -1.378521
  1  -0.460608     3.034748     0.381730
  1  -2.807616     2.321310    -1.009951
  8  -2.825431    -2.265628    -0.227773
  1  -2.733209    -1.407531     0.245409
  1  -3.010755    -2.914522     0.467143
  6   0.062782    -1.068251     0.907395
  1  -0.691116    -1.803330     1.228946
  6   0.631064    -1.559834    -0.440456
  1   1.159155    -2.503534    -0.223864
  8   1.155016    -1.053793     1.813923
  1   0.836971    -0.735575     2.672834
  8  -0.381579    -1.742823    -1.410610
  1  -1.172172    -2.166512    -1.005897
 
