# b3lyp/6-31g(d) opt freq

glo_1w_alpha_ircf_boat2_B3LYP_631Gd

0 1
  6  -1.450292    -1.261424    -0.403584
  8  -1.157973     0.259791    -0.825639
  1  -3.995983     0.615221    -1.523957
  8  -3.539929     0.685979    -0.671416
  1  -2.564715     0.774688    -0.881198
  6   1.063178     0.361506    -0.086279
  6  -0.312743     1.012585     0.063029
  1   1.398623     0.543365    -1.111130
  1  -0.670124     0.938964     1.096547
  8   2.057016     1.010505     0.744899
  1   1.856143     0.781487     1.669135
  6  -0.315765     2.499871    -0.343590
  8   0.399698     3.300713     0.581903
  1  -1.346293     2.870270    -0.347845
  1   0.079618     2.597415    -1.368802
  1   1.283799     2.900814     0.660985
  1  -1.441862    -1.719213    -1.397717
  8  -2.634182    -1.350160     0.260436
  1  -3.259850    -0.634856    -0.101284
  8   4.011631    -0.576333    -0.627066
  1   4.422497    -0.062702    -1.338328
  1   3.599146     0.089863    -0.040088
  6   1.061750    -1.183286     0.119134
  1   1.709928    -1.395115     0.985271
  6  -0.310611    -1.755004     0.497537
  1  -0.247150    -2.849262     0.396884
  8  -0.573434    -1.380950     1.839661
  1  -1.548941    -1.361148     1.902796
  8   1.525532    -1.861504    -1.029131
  1   2.470848    -1.609942    -1.112519
 
