# b3lyp/6-31g(d) opt freq

glo_1w_alpha_ircr_boat2_B3LYP_631Gd

0 1
  6  -1.507080    -1.393806    -0.360085
  8  -1.141063     0.323920    -0.854305
  1  -4.045252     0.597953    -1.509956
  8  -3.566920     0.697056    -0.672316
  1  -2.104554     0.688252    -0.854375
  6   1.062284     0.362461    -0.088540
  6  -0.306706     1.035339     0.064256
  1   1.399688     0.543818    -1.112947
  1  -0.680101     0.931302     1.089052
  8   2.053243     1.011312     0.744023
  1   1.856904     0.775249     1.667643
  6  -0.308850     2.510483    -0.338350
  8   0.402277     3.306959     0.584609
  1  -1.341461     2.877284    -0.344442
  1   0.082856     2.601566    -1.366120
  1   1.286622     2.908261     0.662926
  1  -1.452084    -1.719552    -1.408150
  8  -2.609829    -1.377075     0.259682
  1  -3.509852    -0.225167    -0.269268
  8   4.011668    -0.576306    -0.627332
  1   4.424899    -0.064062    -1.338233
  1   3.602231     0.090821    -0.039982
  6   1.061528    -1.181743     0.117904
  1   1.714614    -1.388431     0.981831
  6  -0.300553    -1.759552     0.503837
  1  -0.212486    -2.855716     0.409715
  8  -0.572523    -1.381080     1.839560
  1  -1.554307    -1.361688     1.872396
  8   1.525693    -1.860162    -1.029851
  1   2.471967    -1.612446    -1.111882
 
