# b3lyp/6-31g(d) opt freq

glo_2w_alpha_ircf_boat2_B3LYP_631Gd

0 1
  6   0.039026    -1.609895     0.319535
  8   0.393189     0.172356     0.853097
  1   2.912104     1.202941     0.442702
  1   3.733859    -2.422368    -0.039234
  8   3.354212    -1.663217    -0.505658
  1   3.216436    -0.358253     0.437122
  8   2.858418     0.394344     0.993633
  1   1.445831     0.236841     0.941953
  6  -1.652069     1.048884    -0.060076
  6  -0.108712     1.020282    -0.189272
  1  -1.961140     1.892486     0.569401
  1   0.140764     0.568875    -1.159911
  8  -2.240498     1.254986    -1.331855
  1  -2.172910     0.387273    -1.777899
  6   0.516955     2.404046    -0.109834
  8   1.894826     2.434336    -0.513331
  1   0.502947     2.760108     0.924520
  1  -0.074725     3.095411    -0.723479
  1   1.929914     2.281330    -1.471070
  1   0.334867    -1.952929     1.319760
  8   0.745437    -1.859272    -0.686141
  1   2.390271    -1.878170    -0.628929
  6  -1.477331    -1.490493     0.052479
  1  -1.939896    -2.383685     0.502774
  6  -2.165163    -0.237207     0.633597
  1  -3.235978    -0.308625     0.419380
  8  -1.661080    -1.490599    -1.357548
  1  -0.783145    -1.766271    -1.707472
  8  -2.044170    -0.181181     2.045287
  1  -1.109590     0.024165     2.221527
 
