%NPROCS=4
# b3lyp/6-31g(d) irc=(calcfc,reverse,maxpoints=20)

 ./1/glo_1w_alpha_boat1_b3lyp_631Gd_iopt.out

0  1
H          -1.33213         1.38188         1.46188
C          -1.24056         0.86942         0.49721
C           0.84267        -0.18386        -0.53381
C          -1.29980        -1.51895        -0.22106
C          -0.20956        -1.05555        -1.22305
O          -1.51217        -0.49647         0.80230
C           0.19983         1.10832        -0.02440
H          -0.69430        -0.44290        -2.00466
H           0.17606         1.83477        -0.84461
C          -2.31423         1.48292        -0.40871
H          -3.30085         1.22249        -0.00049
H          -2.25016         1.08299        -1.43172
H           1.23607        -0.73492         0.33100
O          -2.08374         2.88925        -0.38905
H          -2.70754         3.31014        -0.99896
O           0.39764        -2.18551        -1.80267
H           1.23010        -1.84050        -2.17616
O           1.86635         0.04763        -1.48734
H           2.67751         0.31077        -0.99263
O           1.04825         1.61813         1.03385
H           0.71939         2.50006         1.27323
H          -2.24935        -1.68409        -0.74108
O          -1.02354        -2.69737         0.43151
H          -0.17292        -2.60942         0.90637
O           0.49074        -1.56238         2.57215
H          -0.35248        -1.14130         2.31681
H           1.11714        -0.82260         2.60339
O           3.69998         1.14062         0.24989
H           2.87982         1.46962         0.67785
H           4.08543         1.91790        -0.18240

