# b3lyp/6-31g(d) irc=(calcfc,forward)

glo_2w_alpha_ts_boat4_B3LYP_631Gd

0 1
  8  -0.626483     0.322533     0.560673
  6   1.666915     0.182524    -0.246974
  6   0.250591    -1.931647    -0.199200
  6   1.581864    -1.275651     0.206372
  6  -0.877477    -0.930342    -0.514080
  6   0.606356     1.046021     0.457788
  1   1.634100    -1.299941     1.305640
  1   0.969430     1.219879     1.481650
  1   1.520974     0.221329    -1.338733
  6   0.403475     2.395791    -0.246657
  1   0.069208     2.232835    -1.276409
  1  -0.366202     2.990012     0.263527
  1   0.436397    -2.476627    -1.141752
  8   1.637504     3.120060    -0.345309
  1   1.833457     3.489309     0.530561
  8  -0.179306    -2.808116     0.816674
  1  -1.155290    -2.790157     0.742909
  8   2.648198    -2.014648    -0.367545
  1   3.444748    -1.474879    -0.224059
  8   2.975070     0.646270     0.072755
  1   3.022784     1.556410    -0.272209
  1  -0.725394    -0.393184    -1.464169
  8  -2.065748    -1.400102    -0.287708
  8  -3.775146     0.241444    -0.876618
  1  -3.054838    -0.584288    -0.711876
  1  -3.335417     1.009644     0.067454
  1  -4.660765    -0.106871    -0.689372
  8  -2.700595     1.542682     0.863431
  1  -1.672784     0.975548     0.756512
  1  -3.058698     1.309824     1.735997
 
