# b3lyp/6-31g(d) irc=(calcfc,forward)

glo_2w_beta_ts_boat4_B3LYP_631Gd

0 1
  8   0.612378    -0.210934    -0.990135
  6  -1.234521     0.825689     0.235694
  6  -1.133372    -1.699761     0.118722
  6  -1.974549    -0.449051    -0.165955
  6   0.384127    -1.426143     0.182315
  6  -0.008527     1.044664    -0.668871
  1  -2.159568    -0.421297    -1.251773
  1  -0.385503     1.460582    -1.615033
  1  -0.919903     0.735269     1.282604
  1   0.951197    -2.180376    -0.389020
  6   0.984270     2.031233    -0.037409
  1   1.343198     1.625945     0.911924
  1   1.852895     2.188240    -0.694931
  1  -1.413073    -2.058189     1.117994
  8   0.854284    -1.042084     1.326525
  8   0.354658     3.278694     0.269062
  1   0.164981     3.726228    -0.571536
  8  -1.446355    -2.658383    -0.884937
  1  -1.211181    -3.535221    -0.545642
  8  -3.194241    -0.549966     0.548925
  1  -3.581619     0.342347     0.519936
  8  -2.154622     1.907726     0.088842
  1  -1.712876     2.679646     0.483162
  8   3.280361    -1.010017     1.123919
  1   3.279206    -0.596934    -0.088222
  1   2.155055    -1.067164     1.315093
  1   3.635166    -0.344762     1.733531
  8   3.020103    -0.318282    -1.180183
  1   1.810000    -0.182163    -1.162950
  1   3.474919     0.494018    -1.448252
 
