# b3lyp/6-31g(d) opt freq

glo_2w_alpha_ircf_boat3_B3LYP_631Gd

0 1
  6   1.024534     0.227451     1.091374
  6   0.468092    -1.505844    -0.749379
  8  -0.525566     0.679113    -0.788436
  6  -0.896487    -0.834229    -0.656603
  6   0.515076     1.242141     0.060067
  6   1.351367    -1.153809     0.459422
  1   1.167715    -1.902195     1.241917
  1   0.944282    -1.074795    -1.640952
  1   0.057766     2.069956     0.621039
  1   1.945608     0.643307     1.515732
  6   1.622517     1.807048    -0.847394
  1   1.159058     2.410594    -1.642239
  1   2.179639     0.994202    -1.318317
  8   2.583105     2.552236    -0.107435
  1   2.139928     3.338810     0.248449
  8   0.305251    -2.903939    -0.909987
  1   1.198350    -3.268241    -1.020670
  8   2.693236    -1.256128    -0.030399
  1   3.295904    -1.153354     0.723050
  8   0.118067     0.086368     2.170885
  1  -0.652420    -0.401409     1.811470
  1  -1.476134    -0.969018    -1.575887
  8  -1.603413    -1.119029     0.460451
  8  -2.640430     1.900098    -0.544795
  1  -1.744467     1.460484    -0.697904
  1  -2.980035     2.133614    -1.421336
  8  -3.811089    -0.055069     0.327438
  1  -2.573091    -0.770104     0.395545
  1  -3.448876     0.841529     0.011506
  1  -4.133698     0.078114     1.231313
 
