%NPROCS=4
# opt=(calcfc,ts,noeigentest,maxcycle=500,cartesian) freq b3lyp/6-31g(d)

boat3_Alpha_B3LYP_6-31G_d

0 1
  6           0       -1.039427   -0.193326    1.093588
  6           0       -0.470762    1.543030   -0.741508
  8           0        0.497214   -0.684407   -0.803543
  6           0        0.903823    0.888214   -0.646113
  6           0       -0.557710   -1.217729    0.052337
  6           0       -1.341376    1.203129    0.477939
  1           0       -1.130691    1.938982    1.266139
  1           0       -0.970181    1.132803   -1.630664
  1           0       -0.114919   -2.054256    0.609013
  1           0       -1.968238   -0.598637    1.513243
  6           0       -1.681426   -1.762966   -0.844532
  1           0       -1.231483   -2.269041   -1.713337
  1           0       -2.312406   -0.947186   -1.211394
  8           0       -2.548860   -2.626336   -0.116297
  1           0       -2.047958   -3.425129    0.112055
  8           0       -0.276119    2.941095   -0.889745
  1           0       -1.164560    3.328817   -0.964702
  8           0       -2.689649    1.346400    0.010046
  1           0       -3.282009    1.311135    0.780351
  8           0       -0.127006   -0.083074    2.169193
  1           0        0.647586    0.400323    1.795161
  1           0        1.460219    0.978000   -1.592531
  8           0        1.591443    1.113477    0.445339
  8           0        2.565602   -1.892678   -0.445352
  1           0        1.541708   -1.338588   -0.661497
  1           0        2.928117   -2.247399   -1.274911
  8           0        3.797378    0.063721    0.275262
  1           0        2.865194    0.651108    0.370261
  1           0        3.250663   -1.052253   -0.075138
  1           0        4.170206    0.003628    1.168463

