# opt=(calcfc,ts,cartesian,noeigentest,maxcycles=500) freq b3lyp/6-31g(d)

glo_2w_beta_ts_boat

0 1
 C                  0.20266614   -1.60817509    0.03139465
 O                  0.67460514   -0.11201109    0.74106765
 H                  2.18336778    0.57680624    2.85261388
 H                  1.37535392   -2.75410805    3.37299579
 O                  1.87997946   -2.30269061    2.69032019
 H                  1.85457549   -1.14542644    3.00669699
 O                  1.41932002   -0.02716098    3.00077760
 H                  0.89684553    0.00089729    1.91489085
 C                 -1.44096986    0.94310791    0.54130665
 C                  0.05349514    1.03358791    0.13330365
 H                 -1.75193286    1.80069291    1.18194865
 H                  0.15396714    0.94393091   -0.97410835
 O                 -2.24082086    1.09171191   -0.62546135
 H                 -2.27049286    0.23622391   -1.14179935
 C                  0.77752214    2.28485691    0.64054065
 O                  2.02976914    2.41769691   -0.05684935
 H                  1.09062114    2.18406391    1.70129465
 H                  0.17852714    3.20323991    0.51355465
 H                  1.88345714    2.75169891   -0.96696235
 H                  1.33608890   -2.73373462    1.71134924
 C                 -1.27511686   -1.64927909    0.49649365
 H                 -1.45096186   -2.56347009    1.10545465
 C                 -1.76538286   -0.39530509    1.26249965
 H                 -2.86457186   -0.45819209    1.44653665
 O                 -2.00486586   -1.70684809   -0.74718335
 H                 -2.79443286   -2.27852809   -0.65603435
 O                 -1.20555986   -0.37795509    2.56525665
 H                 -0.20612486   -0.42706509    2.50642865
 O                  1.03390814   -2.35101809    0.61489365
 H                  0.32993714   -1.34270609   -1.03115935

