%NPROCS=4
# opt=(MaxCycle=1000) freq B3LYP/6-31G(d)

 ./chairs/2/glo_1w_beta_ircr_chair2_B3LYP_631Gd.out

0  1
C          -1.70633         0.47966        -0.45990
O          -1.06536         0.81781         0.87799
C          -1.59539        -1.02448        -0.72255
C          -0.12079        -1.45089        -0.62646
C           0.47500        -1.11846         0.76284
C           0.30862         0.35467         1.16447
H          -1.96120        -1.22928        -1.73874
H           1.54751        -1.32635         0.73862
H           0.36961         0.38206         2.25615
H          -0.05279        -2.53416        -0.76083
O          -2.33536        -1.77103         0.24293
O           0.59582        -0.84085        -1.70720
O          -0.06063        -1.99413         1.74487
H           0.19593         0.04085        -1.86772
H          -3.24705        -1.43967         0.26755
H          -1.02873        -1.97511         1.64189
C           1.39053         1.32260         0.61825
O           2.66986         0.91783         1.04755
H           1.19406         2.32292         1.02011
H           1.33271         1.39985        -0.47393
H           3.04865         0.35513         0.33499
O          -1.15630         1.21779        -1.48169
H          -1.11513         2.16190        -1.11132
H          -2.74993         0.76566        -0.25253
H          -1.09415         2.31893         0.67892
O          -1.07679         3.09615         0.04517
H          -1.90372         3.58617         0.16902
O           3.32044        -0.61439        -1.16729
H           2.40664        -0.76385        -1.49916
H           3.77027        -0.11560        -1.86502

