%NPROCS=4
# opt=(MaxCycle=1000) freq B3LYP/6-31G(d)

 ./chairs/2/glo_1w_alpha_ircr_chair2_B3LYP_631Gd.out

0  1
C          -1.50042        -0.12191        -0.98848
O          -1.02086         0.80971         0.40217
C          -0.96278        -1.49605        -0.58228
C           0.50317        -1.53469        -0.12111
C           0.80711        -0.56058         1.03486
C           0.36255         0.89163         0.78685
H          -1.05261        -2.12241        -1.49131
H           1.88600        -0.55039         1.21826
H           0.38973         1.38900         1.76205
H           0.72055        -2.54131         0.25774
O          -1.80093        -2.00103         0.44174
O           1.35770        -1.23829        -1.24451
O           0.19976        -1.07100         2.21055
H           1.23329        -1.93728        -1.90677
H          -2.65230        -1.53724         0.26712
H          -0.71174        -1.32373         1.96366
C           1.19928         1.73890        -0.18544
O           2.46464         1.99915         0.37683
H           0.68296         2.69857        -0.32417
H           1.27315         1.26043        -1.17062
H           3.07361         1.28347         0.08748
H          -0.89889         0.40390        -1.74704
O          -2.76697        -0.03721        -1.00663
H          -3.07887         1.49757        -0.69298
H          -1.57775         1.66665         0.30293
O          -2.82772         2.34854        -0.21230
H          -3.47755         2.44035         0.50161
O           3.88802        -0.13446        -0.70677
H           4.26165         0.20245        -1.53502
H           3.09953        -0.65291        -0.97220

