%NPROCS=4
# b3lyp/6-31g(d) irc=(calcfc,forward,maxpoints=20)

 ./2/glo_1w_alpha_boat2_b3lyp_631Gd_iopt.out

0  1
H           1.22914         0.44336        -1.22060
C           1.02712         0.71491        -0.17677
C          -1.24496         0.36575         0.93216
C           0.43335        -1.53150         0.47665
C          -1.05363        -1.16153         0.77659
O           1.30936        -0.41598         0.66486
C          -0.44995         1.18217        -0.08837
H          -2.30853         0.58434         0.78173
H          -1.32688        -1.61128         1.73939
H          -0.47739         2.22790         0.23845
C           1.99854         1.80993         0.24259
H           3.02707         1.41880         0.23291
H           1.76019         2.13282         1.26555
O           1.83082         2.86176        -0.70454
H           2.27607         3.65167        -0.36522
O          -1.93115        -1.70930        -0.19580
H          -1.39735        -1.84606        -0.99982
O          -0.79143         0.80489         2.21507
H          -1.46785         0.55821         2.86368
O          -1.10471         1.05594        -1.35619
H          -0.66441         1.67031        -1.96487
H           0.80945        -2.26227         1.20226
O           0.50418        -2.02811        -0.82724
H           1.44508        -2.27300        -0.98905
H           3.68581        -2.68886        -0.03990
O           3.23984        -2.03386        -0.59805
H           2.93914        -1.33314         0.01611
O          -3.94130         0.31584        -0.91496
H          -3.17941         0.78629        -1.29522
H          -3.53790        -0.54670        -0.70752

