%NPROCS=4
# b3lyp/6-31g(d) irc=(calcfc,reverse,maxpoints=20)

 ./2/glo_2w_alpha_boat2_b3lyp_631Gd_iopt.out

0  1
H           0.01061         0.56301        -1.37714
C          -0.09254         0.95347        -0.35148
C          -2.16874        -0.05210         0.73089
C           0.00313        -1.34115         0.29409
C          -1.56375        -1.38956         0.25087
O           0.46637         0.01214         0.55044
C          -1.61138         1.13177        -0.07796
H          -3.24962        -0.09056         0.53687
H          -1.88630        -2.18413         0.93509
H          -1.80076         2.04384         0.50553
C           0.67556         2.26564        -0.23800
H           0.68952         2.59624         0.80495
H           0.15369         3.03745        -0.82786
O           2.04201         2.17617        -0.63783
H           2.07686         1.76102        -1.51496
O          -2.10530        -1.74674        -1.00267
H          -2.02043        -0.98411        -1.59977
O          -1.89949         0.22303         2.10097
H          -2.34709        -0.45646         2.62855
O          -2.34731         1.16127        -1.30900
H          -2.06178         1.93380        -1.82128
H           0.37345        -1.87332         1.18026
O           0.51617        -1.83493        -0.88248
H           1.50540        -1.87952        -0.78891
H           3.17023         1.09769         0.59621
H           3.61135        -2.53087        -0.09330
O           3.21935        -1.76646        -0.54024
H           3.35154        -1.00529         0.08701
O           3.19926         0.32381         1.19288
H           2.24106         0.17636         1.32157

