%nprocshared=2
# opt b3lyp/6-31g(d)

Glo_A_ch2_GS_b3lyp_631Gd

0 1
 C                 -1.06689900    1.05033400   -0.38753100
 O                 -0.40886300    1.16857200    0.85771800
 C                 -1.30729000   -0.41212200   -0.79082100
 C                  0.00514700   -1.21485500   -0.72853900
 C                  0.69898700   -1.01111100    0.62935400
 C                  0.86117100    0.48364200    0.96836300
 H                 -1.70687200   -0.42451100   -1.81918700
 H                  1.69534900   -1.45831300    0.59134100
 H                  1.08260200    0.52080400    2.03799700
 H                 -0.21930200   -2.28272600   -0.84326200
 O                 -2.23760400   -1.00823700    0.10625900
 O                  0.90695100   -0.76710900   -1.75042100
 O                 -0.01484600   -1.69342700    1.64483100
 H                  0.56047800   -1.03550500   -2.61522100
 H                 -2.86473900   -0.29271400    0.32665300
 H                 -0.95500200   -1.45958400    1.52560200
 C                  1.96753300    1.24258600    0.18086600
 O                  3.04183500    0.41878600   -0.23692200
 H                  2.39927100    2.00847100    0.83250500
 H                  1.51958100    1.76567600   -0.67398800
 H                  2.69382100   -0.11277400   -0.97488400
 O                 -0.33581100    1.72344572   -1.41579699
 H                 -0.88079581    2.41681749   -1.79504249
 H                 -2.03438284    1.48991633   -0.26246145

