%NPROCS=4
# b3lyp/6-31g(d) irc=(calcfc,reverse,maxpoints=20)

 ./3/glo_2w_beta_boat3_b3lyp_631Gd_iopt.out

0  1
C           1.74707         0.74813         0.45051
C           0.54668        -1.38082        -0.35753
O          -0.65176         0.30144         0.95745
C          -0.47788        -1.12742         0.74891
C           0.29167         1.24958         0.44145
C           1.87780        -0.72566         0.00380
H          -0.11835        -1.55963         1.68939
H           2.28104        -1.27582         0.86497
H           0.16306        -0.95112        -1.29602
H           0.22910         2.09946         1.13771
H           2.30641         1.38300        -0.25109
C          -0.12169         1.79414        -0.94422
H          -1.21280         1.89960        -0.98401
H           0.16768         1.11198        -1.74733
O          -1.71569        -1.69205         0.50879
H          -2.05139        -1.35777        -0.35988
O           0.55376         3.01839        -1.21845
H           0.12011         3.71762        -0.70516
O           0.71596        -2.77926        -0.49536
H           1.48314        -2.88347        -1.08361
O           2.71749        -0.90900        -1.13873
H           3.63513        -0.75668        -0.86450
O           2.32759         0.80386         1.75577
H           2.30166         1.72578         2.05704
O          -2.90659        -0.21646        -1.47575
H          -3.65919        -0.56581        -1.97603
H          -3.29552         0.22201        -0.67646
O          -3.46610         0.64688         1.05432
H          -3.63800        -0.24810         1.39187
H          -2.49125         0.70086         1.16120

