%NPROCS=4
# b3lyp/6-31g(d) irc=(calcfc,reverse,maxpoints=20)

 ./3/glo_2w_alpha_boat3_b3lyp_631Gd_iopt.out

0  1
C           1.32923         0.67898         0.63041
C           0.93760        -1.43373        -0.81913
O          -0.72715         0.24450        -0.84114
C          -0.52769        -1.14938        -0.50805
C          -0.02039         1.17274         0.00883
C           1.79633        -0.75335         0.24427
H           1.72007        -1.36541         1.14558
H           1.13787        -0.97794        -1.80513
H          -0.66570         1.41405         0.86488
H           2.10911         1.38554         0.33096
C           0.15381         2.43497        -0.84620
H          -0.83621         2.76783        -1.19533
H           0.75223         2.19619        -1.73209
O           0.85060         3.46437        -0.16724
H           0.38870         3.64576         0.66697
O           1.17871        -2.82507        -0.85942
H           2.14281        -2.92802        -0.78520
O           3.17881        -0.83127        -0.11437
H           3.31504        -0.27604        -0.89986
O           1.26002         0.81633         2.04810
H           0.60952         0.15463         2.34280
H          -1.19525        -1.68902        -1.18945
O          -0.80472        -1.41325         0.82322
H          -1.79227        -1.47090         0.93229
O          -3.40488         0.86390        -0.64644
H          -3.85696         0.78324        -1.49984
H          -2.45149         0.69873        -0.84162
O          -3.51722        -1.36359         0.91166
H          -3.85032        -1.14542         1.79499
H          -3.65380        -0.54195         0.37433

