%NPROCS=4
# opt=(MaxCycle=1000) freq B3LYP/6-31G(d)

 ./chairs/1/glo_1w_alpha_ircf_chair_B3LYP_631Gd.out

0  1
C           1.32336        -1.01589        -1.64853
O           1.18737        -1.30851         0.82310
H           4.47552        -1.15526         0.08343
O           3.76853        -0.53405         0.31332
H           2.16856        -1.19467         0.82413
C          -0.19409        -1.14601        -1.61571
C          -0.89288         0.02987        -0.90724
C          -0.78810         0.02314         0.63264
C           0.63140        -0.05734         1.22052
H          -0.44970        -2.08561        -1.10362
H          -1.38436        -0.81419         1.00960
H           1.22708         0.77648         0.81522
H          -0.45394         0.96392        -1.29081
O          -0.59421        -1.18906        -2.97762
O          -2.25374        -0.09136        -1.30568
O          -1.44949         1.21002         1.15571
H          -2.72157         0.76574        -1.17353
H          -1.52978        -0.90733        -2.95039
H          -0.86360         1.96519         0.96806
C           0.66661         0.02935         2.75929
O           0.30028         1.29664         3.28149
H           1.69881        -0.15027         3.07660
H           0.04789        -0.78275         3.17327
H          -0.64150         1.40587         3.07243
H           1.87204        -1.97563        -1.70697
O           1.91969         0.04718        -1.70644
H           3.44547        -0.17875        -0.54141
O          -3.58557         2.12939        -0.37627
H          -4.47978         1.80155        -0.19401
H          -3.05351         1.86313         0.40272

