%NPROCS=4
# opt=(MaxCycle=1000) freq B3LYP/6-31G(d)

 ./chairs/1/glo_2w_alpha_ircf_chair_B3LYP_631Gd.out

0  1
C           0.15643        -0.89179        -1.01306
O           0.27848        -0.81658         0.43794
H           2.74094        -1.11906         2.02333
H           3.85309        -1.40729        -1.55768
O           3.46748        -0.70348        -1.01543
H           3.34741        -1.11053        -0.11431
O           2.75214        -1.82385         1.34605
H           1.81798        -1.78795         1.05689
C          -1.32280        -0.66848        -1.34124
C          -1.75000         0.70467        -0.82627
C          -1.44366         0.86853         0.66494
C           0.01955         0.49125         0.96268
H          -1.89371        -1.43231        -0.78867
H          -2.11083         0.21196         1.23470
H           0.67664         1.21802         0.45798
H          -1.18169         1.46415        -1.38857
O          -1.53265        -0.79369        -2.73229
O          -3.14350         0.83581        -1.08570
O          -1.77121         2.19357         1.09725
H          -3.43051         1.65923        -0.65734
H          -2.44304        -0.49334        -2.89123
H          -1.21261         2.80902         0.59174
C           0.32998         0.48910         2.45649
O           1.73018         0.43155         2.75207
H          -0.10777        -0.39881         2.92147
H          -0.12454         1.37772         2.91205
H           2.13741         1.25348         2.43568
H           0.45229        -1.92455        -1.23733
O           0.94283         0.03939        -1.65182
H           1.89693        -0.21296        -1.51540

