%NPROCS=4
# opt=(MaxCycle=1000) freq B3LYP/6-31G(d)

 ./chairs/1/glo_1w_beta_ircf_chair_B3LYP_631Gd.out

0  1
C           0.12873         1.63195        -1.90969
O          -0.30461         1.77400         0.66399
H           3.08805         1.74105         0.26531
O           0.83268         2.62418        -1.91013
H           2.11041         2.61645        -0.55178
O           2.37969         2.39400         0.36805
H           0.66388         1.95137         0.74212
C           0.65339         0.21444        -1.70529
C          -0.24166        -0.73402        -0.85595
C          -0.00019        -0.66946         0.66953
C          -0.62377         0.57439         1.33737
C          -0.23981         0.72023         2.81665
O          -0.68259        -0.43917         3.53971
O           0.70315        -0.26891        -3.03716
O           0.07701        -2.03215        -1.34080
O          -0.57693        -1.84877         1.25029
H          -0.93163         1.68985        -2.22021
H           1.66282         0.26604        -1.26841
H           0.53187        -1.23006        -2.94016
H          -0.69527        -2.62376        -1.16775
H          -0.62714        -1.68478         2.21461
H           1.08886        -0.68282         0.84582
H          -1.71330         0.46228         1.27299
H          -0.71244         1.62900         3.20965
H           0.85192         0.83587         2.89712
H          -0.29628        -0.42336         4.42790
O          -2.06506        -3.44320        -0.39618
H          -1.75733        -4.34734        -0.22814
H          -1.30103        -0.50712        -1.05776
H          -1.76025        -2.93432         0.38876

