%NPROCS=4
# opt=(calcfc,ts,noeigentest,maxcycle=1000,cartesian) b3lyp 6-31g(d) freq

 ./2/glo_1w_beta_boat2_b3lyp_631Gd_iopt.out

0  1
H           0.97208         1.28533        -1.61522
C           1.13502         0.69888        -0.69513
C          -0.41664         0.16440         1.25727
C          -0.56009        -1.00142        -1.02364
C          -1.14360        -0.92352         0.40647
O           0.85937        -0.67489        -0.97511
C           0.22603         1.28059         0.41499
H          -1.16761         0.61490         1.91793
H          -1.05534        -0.28217        -1.68783
H          -0.92266        -1.87855         0.89907
H           0.83159         1.90254         1.08242
C           2.61583         0.79407        -0.33632
H           3.20431         0.25375        -1.09301
H           2.77641         0.32490         0.64355
O          -0.68084        -2.24715        -1.60952
H          -0.40094        -2.90892        -0.95472
O           2.93488         2.18195        -0.31621
H           3.79191         2.28735         0.12714
O          -2.54647        -0.83983         0.40309
H          -2.85426         0.00588         0.00178
O           0.61358        -0.38099         2.07847
H           0.87466        -1.25961         1.73726
O          -0.82168         2.08964        -0.15335
H          -0.40829         2.82191        -0.63809
H           2.26726        -3.23310         0.76341
O           1.42904        -2.76510         0.65067
H           1.56947        -2.10646        -0.06561
O          -3.53474         1.66753        -0.28663
H          -2.64017         2.04105        -0.14463
H          -4.00266         1.80397         0.55363

