# opt freq hf/6-31g

density at points

0 1
     6  -0.655547    -0.019757     0.000011
     8   0.736957     0.120594     0.000008
     1  -1.012314    -0.549927    -0.879844
     1  -1.013422    -0.536599     0.887336
     1  -1.076573     0.975921    -0.007783
     1   1.139933    -0.735608     0.000160


