# b3lyp/6-31g(d) opt freq

glo_2w_beta_ircf_boat4_B3LYP_631Gd

0 1
  8   0.624889    -0.176988    -1.021604
  6  -1.199661     0.838837     0.233018
  6  -1.106927    -1.692647     0.117018
  6  -1.939900    -0.436003    -0.169074
  6   0.408557    -1.457553     0.229799
  6   0.021392     1.073679    -0.676027
  1  -2.126067    -0.408927    -1.254567
  1  -0.365333     1.507233    -1.610271
  1  -0.883075     0.747305     1.278744
  1   0.994278    -2.168296    -0.382170
  6   1.019800     2.046552    -0.039127
  1   1.377388     1.637807     0.909219
  1   1.889280     2.201323    -0.695119
  1  -1.407016    -2.048642     1.111889
  8   0.860811    -1.029193     1.326380
  8   0.388076     3.291996     0.267909
  1   0.202871     3.742164    -0.572247
  8  -1.413562    -2.646602    -0.889611
  1  -1.179565    -3.524408    -0.552093
  8  -3.160032    -0.536205     0.546775
  1  -3.548356     0.355729     0.516455
  8  -2.120350     1.920182     0.086921
  1  -1.680290     2.691868     0.483650
  8   3.343501    -1.003684     1.154079
  1   3.340703    -0.550599    -0.252432
  1   2.337459    -1.072148     1.343199
  1   3.682019    -0.355272     1.788616
  8   3.078692    -0.295726    -1.210192
  1   1.653020    -0.126332    -1.168557
  1   3.586853     0.489868    -1.457241
 
