# b3lyp/6-31g(d) opt freq

glo_1w_alpha_ircr_boat4_B3LYP_631Gd

0 1
  8  -1.242375     0.476152    -0.700494
  6   1.041412     0.351921    -0.158913
  6  -0.388034    -1.727855     0.453289
  6   1.008779    -1.158202     0.187699
  6  -1.519161    -1.343811    -0.492110
  6  -0.271644     1.092267     0.134642
  1   1.554739    -1.267515     1.137201
  1  -0.532812     0.983145     1.195772
  1   1.208882     0.426632    -1.244236
  6  -0.236376     2.563167    -0.286070
  1   0.006498     2.626097    -1.350501
  1  -1.225207     3.022646    -0.141112
  1  -0.290182    -2.820503     0.327482
  8   0.776234     3.306829     0.396428
  1   0.523346     3.374562     1.331455
  8  -0.783301    -1.401192     1.773737
  1  -1.759574    -1.481889     1.737139
  8   1.588924    -1.936990    -0.839572
  1   2.532553    -1.660696    -0.898599
  8   2.136675     0.936949     0.559149
  1   2.066694     1.906993     0.446298
  1  -1.333552    -1.504449    -1.562301
  8  -2.678550    -1.465719    -0.009049
  8  -3.672988     0.715677    -0.550667
  1  -3.584720    -0.277245    -0.415102
  1  -2.202868     0.820426    -0.575776
  1  -4.058141     1.048596     0.274643
  8   4.082963    -0.719251    -0.531215
  1   4.543486    -1.172647     0.191062
  1   3.602851     0.018593    -0.092552
 
