# b3lyp/6-31g(d) irc=(calcfc,forward)

glo_2w_beta_ts_boat3_B3LYP_631Gd

0 1
  6   1.194101     0.218224     0.869621
  6  -0.493707     1.781861    -0.216749
  8  -0.139622    -0.754118    -0.939169
  6  -1.067906     0.787717    -1.266299
  6   1.170467    -0.461944    -0.519615
  6  -0.028400     1.132564     1.091439
  1  -0.589196     0.941675    -2.245081
  1   0.296827     1.933904     1.773613
  1  -1.325346     2.461517     0.010075
  1   1.599761     0.261984    -1.230449
  1   1.187230    -0.552912     1.659451
  6   2.053468    -1.712049    -0.545472
  1   1.996265    -2.195862    -1.528822
  1   1.719554    -2.432521     0.208897
  8  -2.302985     0.490012    -1.269474
  8   3.412186    -1.380006    -0.203295
  1   3.837008    -1.036660    -1.005065
  8   0.564828     2.542790    -0.792670
  1   1.388164     2.346802    -0.309924
  8  -1.142690     0.435919     1.624521
  1  -0.876599     0.010839     2.454232
  8   2.362788     1.034769     0.999297
  1   3.107493     0.443969     0.774649
  8  -1.482278    -2.236404     0.467945
  1  -2.518145    -1.584223     0.537054
  1  -0.823976    -1.552376    -0.158463
  1  -1.642524    -3.025731    -0.074650
  8  -3.427654    -0.791995     0.476302
  1  -4.139742    -1.167196    -0.068490
  1  -2.941499    -0.059182    -0.182229
 
