# b3lyp/6-31g(d) opt freq

glo_2w_alpha_ircf_boat6_B3LYP_631Gd

0 1
  6  -0.111394     1.026114    -0.201547
  6  -2.167131    -0.243042     0.615938
  6  -1.659370     1.034239    -0.094260
  6  -1.457487    -1.495191     0.064889
  1  -1.912214    -2.388150     0.523274
  1  -3.235196    -0.328435     0.393589
  1   0.171990     0.587306    -1.165787
  1  -1.986801     1.884290     0.517148
  6   0.056398    -1.586784     0.355954
  8   0.394073     0.194562     0.854754
  6   0.460646     2.425917    -0.115449
  1  -0.135368     3.071624    -0.773231
  1   0.375402     2.792994     0.917456
  8   1.832472     2.420833    -0.545963
  1   2.154613     3.335071    -0.533700
  8  -1.620321    -1.521471    -1.347559
  1  -0.732727    -1.792799    -1.676906
  8  -2.059384    -0.159323     2.027755
  1  -1.125844     0.045970     2.209614
  8  -2.236009     1.212577    -1.374852
  1  -2.143357     0.341447    -1.809792
  8   3.371982    -1.769701    -0.358341
  1   2.403782    -1.967245    -0.480479
  1   3.220961    -0.377259     0.413827
  1   3.724830    -1.690626    -1.256972
  8   0.777415    -1.851934    -0.636947
  1   0.341275    -1.914882     1.363884
  8   2.855796     0.412562     0.919029
  1   2.876758     1.184215     0.317571
  1   1.451518     0.250394     0.922487
 
