# b3lyp/6-31g(d) opt freq

glo_2w_beta_ircr_boat6_B3LYP_631Gd

0 1
  6  -1.124013     0.767250    -0.161409
  6  -0.448333    -1.500239     0.844025
  6  -1.366787    -0.255573     0.969483
  6  -0.225610    -1.824405    -0.647008
  1   0.315666    -2.776430    -0.728267
  1  -0.977145    -2.338558     1.324415
  1  -1.729060     0.484071    -1.025131
  1  -1.195251     0.204228     1.953380
  6   0.771486    -0.793907    -1.225925
  1   0.596766    -0.531180    -2.279125
  8   0.237707     0.718621    -0.599751
  6  -1.476945     2.188469     0.232905
  1  -2.471790     2.165240     0.706800
  1  -0.750123     2.548083     0.977681
  8  -1.467765     2.981537    -0.941740
  1  -1.620868     3.902105    -0.681667
  8   1.967919    -0.964533    -0.796845
  8  -1.436215    -1.939470    -1.373050
  1  -2.179582    -1.687916    -0.795966
  8   0.797185    -1.311129     1.508258
  1   1.489612    -1.355068     0.789212
  8  -2.743973    -0.643293     0.830033
  1  -2.988485    -1.177100     1.603377
  8   1.718590     1.262621     1.300758
  1   2.631795     1.171594     0.886926
  1   1.542941     0.424390     1.776719
  1   0.899096     1.010344     0.188632
  8   3.751489     0.804197    -0.199136
  1   3.171697     0.142483    -0.671396
  1   4.499932     0.286285     0.132721
 
