%NPROCS=4
# opt=(MaxCycle=1000) freq B3LYP/6-31G(d)

 ./boats/1/glo_2w_alpha_ts_boat1_B3LYP_631Gd.out

0  1
H           1.38238        -0.97367        -1.28263
C           1.28023        -0.83696        -0.19435
C           0.23210         1.41078        -0.30737
C          -0.95687        -0.20219         1.29603
C          -0.87850         1.22469         0.72643
O          -0.02606        -1.23982         0.19802
C           1.50686         0.66100         0.06841
H          -0.62964         1.87448         1.58443
H           1.73748         0.83340         1.13501
C           2.31587        -1.71146         0.51531
H           2.16807        -2.76468         0.23913
H           2.17323        -1.62078         1.60253
H          -0.13526         1.00811        -1.26497
O           3.61874        -1.25202         0.12718
H           4.28306        -1.70141         0.66967
O          -2.13396         1.58558         0.18360
H          -1.99657         2.43157        -0.27345
O           0.45433         2.80985        -0.41442
H           1.30367         2.90419        -0.88046
O           2.55089         1.18612        -0.74074
H           3.32766         0.62175        -0.57244
H          -0.32697        -0.34475         2.17435
O          -2.13308        -0.75035         1.44465
O          -1.49243        -1.51391        -1.78019
H          -1.46630        -2.43297        -2.08400
H          -2.80189        -1.16526        -1.17898
H          -0.86745        -1.46437        -0.97991
O          -3.54903        -0.91053        -0.54396
H          -4.03245        -1.72960        -0.35682
H          -2.77338        -0.62478         0.63084

