%NPROCS=4
# opt=(MaxCycle=1000) freq B3LYP/6-31G(d)

 ./boats/1/glo_2w_beta_ts_boat1_B3LYP_631Gd.out

0  1
H           0.38737         1.57754         1.54606
C           0.05890         1.12830         0.59930
C           1.85647        -0.56009         0.25695
C          -0.54317        -1.33721        -0.12355
C           0.94826        -1.68633        -0.24321
O          -0.63463        -0.08264         0.93737
C           1.32566         0.79441        -0.20132
H          -1.07611        -2.06937         0.49188
H           1.16399        -1.83536        -1.31092
H           1.09093         0.74049        -1.27604
C          -0.83191         2.13167        -0.14377
H          -1.70350         2.40237         0.46682
H          -1.18467         1.67196        -1.07659
O          -1.11932        -1.03144        -1.28751
H           1.86286        -0.58738         1.35738
O          -0.00817         3.27738        -0.40682
H          -0.49234         3.87712        -0.99273
O           1.16627        -2.88577         0.49074
H           2.11820        -3.06917         0.42991
O           3.15830        -0.80997        -0.25326
H           3.64184         0.02900        -0.15615
O           2.34930         1.75456         0.02728
H           1.97513         2.60864        -0.25384
O          -3.04495         0.22385         1.22670
H          -2.13677        -1.06600        -1.18387
H          -2.03278         0.11628         1.21120
H          -3.36205        -0.25568         2.00648
O          -3.52425        -1.00260        -0.83062
H          -3.46944        -0.45790         0.02699
H          -3.98634        -0.45411        -1.48128

