%NPROCS=4
# opt=(MaxCycle=1000) freq B3LYP/6-31G(d)

 ./boats/1/glo_2w_alpha_ts_boat1_B3LYP_631Gd_r.out

0  1
H           1.43050        -0.96602        -1.30023
C           1.29756        -0.84288        -0.21662
C           0.23008         1.40875        -0.30525
C          -1.02296        -0.16308         1.37158
C          -0.88559         1.22673         0.72877
O           0.00063        -1.27676         0.14903
C           1.50471         0.65978         0.06847
H          -0.62555         1.88475         1.57997
H           1.73709         0.82756         1.13417
C           2.31645        -1.71352         0.51322
H           2.16911        -2.76713         0.23896
H           2.16657        -1.61869         1.59916
H          -0.13703         1.01003        -1.26476
O           3.61744        -1.25217         0.12813
H           4.28194        -1.69740         0.67386
O          -2.13500         1.58861         0.18118
H          -1.99918         2.43694        -0.27154
O           0.45468         2.80912        -0.41414
H           1.30248         2.90309        -0.88307
O           2.55015         1.18502        -0.74093
H           3.32994         0.62695        -0.56663
H          -0.24801        -0.35976         2.13085
O          -2.11126        -0.74007         1.46673
O          -1.50404        -1.50671        -1.77238
H          -1.55098        -2.42669        -2.07149
H          -2.42255        -1.27529        -1.36677
H          -0.60740        -1.40526        -0.68082
O          -3.55929        -0.91390        -0.55218
H          -4.05583        -1.70568        -0.29524
H          -3.09142        -0.62656         0.29378

