%NPROCS=4
# opt=(MaxCycle=1000) freq B3LYP/6-31G(d)

 ./boats/1/glo_1w_beta_ts_boat1_B3LYP_631Gd_r.out

0  1
H          -0.01625         1.62985         1.41924
C          -0.48902         1.13892         0.55712
C           1.12246        -0.75567         0.05946
C          -1.35901        -1.58109         0.00150
C           0.08885        -1.78612        -0.41491
O          -1.26154         0.06154         1.05383
C           0.67612         0.65358        -0.34255
H          -1.62573        -2.07057         0.95077
H           0.08869        -1.75052        -1.51534
H           0.36281         0.62620        -1.39694
C          -1.34765         2.17208        -0.17189
H          -2.14442         2.54351         0.49028
H          -1.81020         1.70635        -1.05397
O          -2.21341        -1.33326        -0.87096
H           1.20757        -0.81361         1.15605
O          -0.46506         3.23406        -0.54579
H          -0.91969         3.81783        -1.17048
O           0.45045        -3.07254         0.05264
H           1.40304        -3.13858        -0.14118
O           2.32102        -1.17724        -0.56403
H           3.08215        -0.72153        -0.13322
O           1.75624         1.58231        -0.20624
H           1.38939         2.44995        -0.45805
O          -3.67447        -0.06537         0.61508
H          -3.36246        -0.69834        -0.10866
H          -2.26788         0.22906         1.01621
O           4.14452         0.50546         0.62579
H           3.44909         1.14127         0.35216
H           4.08413         0.48118         1.59276
H          -4.12994         0.66034         0.16382

