%NPROCS=4
# opt=(MaxCycle=1000) freq B3LYP/6-31G(d)

 ./boats/1/glo_2w_beta_ts_boat1_B3LYP_631Gd_r.out

0  1
H           0.41330         1.63080         1.53467
C           0.06338         1.15451         0.60946
C           1.85471        -0.56048         0.25947
C          -0.54967        -1.41622        -0.21445
C           0.95701        -1.69338        -0.24166
O          -0.62571        -0.04155         0.98450
C           1.32289         0.79273        -0.20007
H          -1.08974        -2.06718         0.49335
H           1.19467        -1.83906        -1.30531
H           1.08315         0.73826        -1.27217
C          -0.83324         2.13503        -0.14464
H          -1.70686         2.40652         0.46320
H          -1.18201         1.66655        -1.07456
O          -1.09301        -1.03099        -1.28201
H           1.86532        -0.58690         1.36005
O          -0.00898         3.27792        -0.40751
H          -0.49072         3.87694        -0.99626
O           1.16960        -2.88815         0.49446
H           2.11953        -3.07989         0.43346
O           3.15771        -0.80871        -0.25283
H           3.64277         0.02911        -0.15318
O           2.34733         1.75373         0.02780
H           1.97790         2.60730        -0.26070
O          -3.06710         0.23048         1.23623
H          -2.55941        -1.08119        -1.14944
H          -1.63856         0.11434         1.15132
H          -3.41391        -0.26857         1.99133
O          -3.54050        -1.01601        -0.85584
H          -3.39476        -0.25453         0.39225
H          -3.98459        -0.49430        -1.54067

