%NPROCS=4
# opt=(MaxCycle=1000) freq B3LYP/6-31G(d)

 ./boats/1/glo_1w_alpha_ts_boat1_B3LYP_631Gd_r.out

0  1
H          -0.25590         1.31790         1.18026
C          -0.06120         1.25198         0.10204
C           0.68340        -1.22421         0.31816
C          -1.56342        -1.01006        -0.92240
C          -0.82824        -1.52409         0.31795
O          -1.22406         0.86978        -0.60895
C           1.04476         0.20665        -0.14448
H          -0.91878        -2.61908         0.25330
H           1.22895         0.16054        -1.22907
C           0.29269         2.63014        -0.45458
H          -0.56091         3.30397        -0.30330
H           0.46787         2.53514        -1.53541
H           1.02958        -1.30445         1.36429
O           1.45638         3.12541         0.22118
H           1.75665         3.93107        -0.22557
O          -1.46790        -1.04318         1.50502
H          -1.16409        -1.59389         2.24236
O           1.27735        -2.20973        -0.50015
H           2.25495        -2.07226        -0.48943
O           2.24775         0.58299         0.54529
H           2.35151         1.55210         0.43903
H          -0.92745        -1.03160        -1.82239
O          -2.79549        -1.05756        -1.03933
O          -3.37824         0.73155         0.56455
H          -3.47624        -0.07669        -0.01255
H          -2.09202         1.02927        -0.06956
H          -3.07822         0.32902         1.39840
O           3.92816        -1.43816        -0.21724
H           3.55464        -0.57799         0.08366
H           4.28040        -1.84577         0.58842

