# b3lyp/6-31g(d) opt freq

glo_2w_beta_ircf_boat2_B3LYP_631Gd

0 1
  6   1.002233    -0.361121    -1.444454
  8  -0.321874     0.781965    -0.773630
  1   0.623582     3.169387     0.944069
  1   2.997698     0.663494     1.066051
  8   3.041707     1.378454     0.405553
  1   1.806998     2.047021     0.692561
  8   0.794781     2.216564     0.911625
  1   0.089825     1.476507    -0.147199
  6  -1.105121    -0.838690     0.953824
  6  -1.449485     0.130028    -0.214601
  1  -1.350284    -0.372076     1.916499
  1  -1.854043    -0.487144    -1.028401
  8  -1.933641    -1.991135     0.872430
  1  -1.618770    -2.469553     0.083201
  6  -2.500134     1.154331     0.206889
  8  -2.896462     2.035613    -0.826011
  1  -2.084295     1.791845     0.995859
  1  -3.351544     0.605599     0.640862
  1  -3.277905     1.506592    -1.544053
  1   2.784666     0.913214    -0.449855
  6   0.974543    -1.502493    -0.395964
  1   2.019627    -1.819318    -0.285141
  6   0.391741    -1.224927     1.008868
  1   0.425687    -2.177253     1.554368
  8   0.194969    -2.554062    -1.007029
  1   0.521275    -3.402795    -0.669885
  8   1.197564    -0.320118     1.752354
  1   0.812527     0.577324     1.732887
  8   2.007426     0.345831    -1.622671
  1   0.352516    -0.597712    -2.302541
 
