%NPROCS=4
# opt=(calcfc,ts,noeigentest,maxcycle=1000,cartesian) freq b3lyp/6-31g(d)

boat4_Alpha_B3LYP_6-31G_d

0 1
   8           0       -0.626289    0.323671    0.563190
   6           0        1.666682    0.183450   -0.245289
   6           0        0.250861   -1.930656   -0.203177
   6           0        1.580476   -1.274782    0.207327
   6           0       -0.879612   -0.929789   -0.511485
   6           0        0.605909    1.047301    0.458609
   1           0        1.629000   -1.299687    1.306778
   1           0        0.969515    1.222593    1.482127
   1           0        1.522239    0.222768   -1.337238
   6           0        0.402918    2.396211   -0.247730
   1           0        0.065080    2.231782   -1.276136
   1           0       -0.364155    2.992680    0.263671
   1           0        0.438284   -2.467815   -1.149862
   8           0        1.637766    3.118600   -0.351728
   1           0        1.835523    3.492313    0.521853
   8           0       -0.176848   -2.816374    0.805556
   1           0       -1.153118   -2.796268    0.735408
   8           0        2.648686   -2.013384   -0.363520
   1           0        3.444373   -1.472775   -0.218748
   8           0        2.974665    0.646415    0.076482
   1           0        3.023983    1.555703   -0.270399
   1           0       -0.732064   -0.391305   -1.461497
   8           0       -2.066491   -1.401229   -0.280831
   8           0       -3.773472    0.240475   -0.874637
   1           0       -3.056537   -0.587708   -0.704973
   1           0       -3.336485    1.008952    0.069608
   1           0       -4.662856   -0.102891   -0.697836
   8           0       -2.700033    1.544715    0.862046
   1           0       -1.672438    0.976779    0.757529
   1           0       -3.057639    1.321358    1.737736

