%NPROCS=4
# opt=(calcfc,ts,noeigentest,maxcycle=1000,cartesian) b3lyp 6-31g(d) freq

boat4_Beta_B3LYP_6-31G_d

0 1
  8           0        1.716275    0.404583   -0.351992
  6           0       -0.687183    0.341686    0.104867
  6           0        0.397163   -1.769779   -0.897875
  6           0       -0.904938   -1.097112   -0.419057
  6           0        1.620264   -1.383972   -0.081972
  6           0        0.476874    1.067567   -0.597445
  1           0       -1.533849   -1.003509   -1.319549
  1           0        0.295121    1.051026   -1.680418
  1           0       -0.458431    0.271804    1.178589
  1           0        2.576006   -1.528814   -0.618331
  6           0        0.647938    2.527127   -0.141271
  1           0        0.751787    2.574293    0.947792
  1           0        1.563172    2.939262   -0.585000
  1           0        0.255169   -2.853491   -0.768162
  8           0        1.594233   -1.586787    1.185701
  8           0       -0.487791    3.348249   -0.443434
  1           0       -0.554795    3.419940   -1.409315
  8           0        0.561513   -1.428166   -2.272125
  1           0        1.464144   -1.660465   -2.541324
  8           0       -1.489816   -1.940043    0.543012
  1           0       -2.365490   -1.565875    0.795567
  8           0       -1.918222    1.056389   -0.098685
  1           0       -1.724537    2.013121   -0.025244
  8           0        2.755049    0.392818    1.810119
  1           0        2.238258    0.629275    0.744878
  1           0        2.330238   -0.694382    1.708483
  1           0        2.258450    0.817208    2.529439
  8           0       -3.806141   -0.510814    1.126989
  1           0       -4.501851   -0.661795    0.472526
  1           0       -3.294897    0.249462    0.769903

