%NPROCS=4
# b3lyp/6-31g(d) irc=(calcfc,reverse,maxpoints=20)

 ./4/glo_1w_beta_boat4_b3lyp_631Gd_iopt.out

0  1
O          -1.54434         0.24268         0.33112
C           0.84043         0.54336        -0.35787
C          -0.30904        -1.59529        -0.79884
C           0.86716        -0.95437        -0.05546
C          -1.61804        -0.80154        -0.64268
C          -0.43388         1.15409         0.26558
H           0.71926        -1.10174         1.02728
H          -0.19029         1.37330         1.31306
H           0.83962         0.67631        -1.44925
H          -2.39743        -1.46046        -0.24676
C          -0.83920         2.45689        -0.43357
H          -1.02722         2.26719        -1.49343
H          -1.75645         2.86292         0.01275
H          -0.05024        -1.59534        -1.86763
O          -1.95232        -0.28213        -1.90874
H          -2.83578         0.11472        -1.83716
O           0.23561         3.40867        -0.37524
H           0.20786         3.83355         0.49662
O          -0.53283        -2.91630        -0.33936
H           0.33863        -3.34706        -0.37783
O           2.01308        -1.63670        -0.51402
H           2.77782        -1.39846         0.06123
O           1.97894         1.21551         0.19273
H           1.88128         2.14775        -0.07835
O          -2.98044        -0.59408         2.70630
H          -3.82555        -0.14985         2.54646
H          -2.41378        -0.27932         1.97911
O           3.96310        -0.49742         1.06350
H           3.76806        -0.59196         2.00819
H           3.47316         0.30773         0.79232

