%NPROCS=4
# opt=(MaxCycle=1000) freq B3LYP/6-31G(d)

boat1_Alpha_B3LYP_6-31G_d

0 1
 H                  1.73473500   -0.45354500   -1.47335700
 C                  1.19830800   -0.52724900   -0.51908500
 C                 -0.68416800    1.12586400   -0.17690400
 C                 -1.08392500   -1.35033000    0.13010700
 C                 -1.46342900    0.06588000    0.59154700
 O                  0.02660000   -1.35162500   -0.79902200
 C                  0.81880300    0.88896000   -0.05764500
 H                 -1.29036200    0.17665800    1.66916700
 H                  1.12040500    1.06101700    0.98318500
 C                  2.13406600   -1.21882400    0.47673900
 H                  2.36761900   -2.23315500    0.13613600
 H                  1.67877100   -1.29633500    1.46860100
 H                 -0.99444700    1.14997500   -1.22913800
 O                  3.34689500   -0.47822000    0.59487900
 H                  3.92370700   -0.98465800    1.19527900
 O                 -2.87152400    0.30409400    0.40913800
 H                 -2.98057700    1.26569300    0.55744400
 O                 -1.01693900    2.42459800    0.34971500
 H                 -0.36642000    3.03009000   -0.06215600
 O                  1.50167100    1.89441000   -0.82310600
 H                  2.45628000    1.71423800   -0.71138600
 H                 -0.80984400   -1.97233200    0.98988400
 O                 -2.17244600   -1.96502600   -0.52214300
 H                 -2.87186500   -1.98930500    0.13211300

