%NPROCS=23
# opt=modredundant freq b3lyp/6-31g(d) geom=connectivity

boat1_Alpha_B3LYP_6-31G_d

0 1
 H              
 C                  1    1.09718789
 C                  2    2.52919086    1  118.13273751
 C                  2    2.51147368    1  136.10302809    3   74.52128097    0
 C                  3    1.50017989    2   90.17217276    1  146.78524591    0
 O                  4    1.50013631    2   34.32500391    1   13.46339625    0
 C                  3    1.52724855    2   34.50018121    1  -81.91114424    0
 H                  5    1.09703638    3  109.39708344    2   95.48057235    0
 H                  7    1.09722124    3  108.72632769    2 -122.76987654    0
 C                  2    1.53153011    1  107.28540356    6  120.79041839    0
 H                 10    1.09518254    2  110.26130659    1  -62.36855256    0
 H                 10    1.09411686    2  111.54199401    1  177.94008376    0
 H                  3    1.09729248    2   95.51270655    1   37.75099216    0
 O                 10    1.42597529    2  109.81673018    1   57.74605908    0
 H                 14    0.97451100   10  106.53267210    2 -176.75901435    0
 O                  5    1.43970500    3  109.11439920    2 -149.93418553    0
 H                 16    0.97906070    5  104.61110873    3  -45.79127826    0
 O                  3    1.44040762    2  144.16168732    1  -88.34319915    0
 H                 18    0.97950664    3  104.48916764    2   51.91349747    0
 O                  7    1.43637354    3  108.51710863    2  123.10611152    0
 H                 20    0.97786586    7  105.91708860    3  179.33994420    0
 H                  4    1.09600336    2   94.93488877    1  132.00878234    0
 O                  4    1.41002099    2  140.41006284    1    5.82828002    0
 H                 23    0.95803305    4  104.99530790    2 -176.85241368    0

 1 2 1.0
 2 7 1.0 10 1.0
 3 5 1.0 7 1.0 13 1.0 18 1.0
 4 5 1.0 6 1.0 22 1.0 23 1.0
 5 8 1.0 16 1.0
 6
 7 9 1.0 20 1.0
 8
 9
 10 11 1.0 12 1.0 14 1.0
 11
 12
 13
 14 15 1.0
 15
 16 17 1.0
 17
 18 19 1.0
 19
 20 21 1.0
 21
 22
 23 24 1.0
 24

D 3 7 2 6 F
D 3 5 4 6 F


