%NPROCS=4
# opt=maxcycle=1000 freq b3lyp/6-31g(d)

boat6_Alpha_B3LYP_6-31G_d

0 1
 C                 -0.46058600   -0.02329700    1.05039000
 C                  1.29060800    0.77391200   -0.58771000
 C                  0.21908400    1.19207300    0.43193000
 C                  1.31214600   -0.75863200   -0.85138000
 H                  1.88389561   -0.93004261   -1.73942323
 H                  2.26084252    1.14587373   -0.33238776
 H                  0.15199189   -0.54357641    1.75675935
 H                 -0.45897578    1.88352436   -0.02307545
 C                  0.02389900   -1.34482900   -1.05018500
 O                 -1.04762500   -0.92666800   -0.03054500
 C                 -1.63795716    0.48893984    1.90069029
 H                 -1.26914996    1.14170544    2.66408948
 H                 -2.32361167    1.02230827    1.27595353
 O                 -2.30777981   -0.62061900    2.50493924
 H                 -2.90347743   -0.30244679    3.18722274
 O                  1.96951000   -1.47296998    0.19861706
 H                  2.81951366   -1.79151914   -0.11382525
 O                  0.95743621    1.38439428   -1.83719307
 H                  1.60052691    2.06714977   -2.04183739
 O                  0.85810374    1.91930278    1.48439882
 H                  0.70066398    2.85889444    1.36616076
 H                 -0.36850327   -1.07729270   -2.00900969
 O                  0.32379784   -2.74289756   -1.03108016
 H                 -0.07093675   -3.16581453   -1.79719101

