%NPROCS=4
# opt=(MaxCycle=1000) freq B3LYP/6-31G(d)

boat4_Alpha_B3LYP_6-31G_d

0 1
 O                  0.26523800   -1.57043300    0.19852300
 C                 -0.77537000    0.73845500   -0.26412300
 C                  1.76885500    0.42869600   -0.02466200
 C                  0.56006400    1.35912400    0.16458800
 C                  1.30662900   -0.84979100   -0.55273700
 C                 -0.94363000   -0.64012300    0.38776200
 H                  0.49499000    1.69318500    1.20791200
 H                 -1.04750700   -0.51946800    1.47316200
 H                 -0.80564300    0.65915800   -1.35808200
 C                 -2.17383900   -1.38567800   -0.13556100
 H                 -2.07516700   -1.57026900   -1.21079300
 H                 -2.27499500   -2.36593500    0.34326700
 H                  2.53196700    0.88038800   -0.66826600
 O                 -3.36100800   -0.62766300    0.07988300
 H                 -3.69209400   -0.86433000    0.96714400
 O                  2.40178000    0.22806700    1.25764700
 H                  2.94684500   -0.57724500    1.14054900
 O                  0.74795100    2.55732700   -0.61238500
 H                 -0.05971200    3.08728300   -0.45662200
 O                 -1.83155700    1.63846800    0.09749900
 H                 -2.67318000    1.16025100   -0.06915800
 H                  0.96369900   -0.76839500   -1.59100500
 O                  2.42437300   -1.74307900   -0.56260800
 H                  2.06032500   -2.58022100   -0.89817900

