%NPROCS=4
# opt=(MaxCycle=1000) freq B3LYP/6-31G(d)

boat6_Alpha_B3LYP_6-31G_d

0 1
 O                  0.02389900   -1.34482900   -1.05018500
 C                 -0.46058600   -0.02329700    1.05039000
 C                  1.29060800    0.77391200   -0.58771000
 C                  0.21908400    1.19207300    0.43193000
 C                  1.31214600   -0.75863200   -0.85138000
 C                 -1.04762500   -0.92666800   -0.03054500
 H                  0.70934900    1.75001400    1.23939900
 H                 -1.35822100   -1.87146800    0.43141900
 H                 -1.29890500    0.34142900    1.65582600
 H                  1.03472300    1.24277900   -1.54734700
 C                 -2.22373800   -0.35729300   -0.82749700
 H                 -2.66652000   -1.13766200   -1.45744700
 H                 -1.89769600    0.42542200   -1.51882400
 O                 -3.23207000    0.17279900    0.02418700
 H                 -3.71199300   -0.58253400    0.40954600
 O                  2.58905100    1.27170000   -0.24601800
 H                  2.50037900    2.23562700   -0.13772600
 O                 -0.68710000    2.11615400   -0.17615600
 H                 -1.46800200    2.20543200    0.40313100
 O                  0.35592800   -0.71678500    1.99192000
 H                  1.10445700   -1.12820000    1.50565200
 H                  1.89804300   -0.93428400   -1.76139700
 O                  1.96761800   -1.47091400    0.19559500
 H                  2.47644400   -2.17211700   -0.24811200

