%NPROCS=4
# b3lyp/6-31g(d) irc=(calcfc,reverse,maxpoints=20)

 ./5/glo_2w_beta_boat5_b3lyp_631Gd_iopt.out

0  1
O           0.44978        -0.71563        -0.74442
C          -1.20955        -0.35779         1.04239
C          -0.19757         1.61270        -0.22433
C          -1.34426         1.13973         0.69390
C           0.93839         0.59492        -0.31727
C          -0.78518        -1.18246        -0.17122
H          -1.28061         1.72419         1.62656
H          -0.59870        -2.20721         0.18271
H          -2.18451        -0.73326         1.38587
H          -0.60958         1.74812        -1.23457
C          -1.84993        -1.21378        -1.28318
H          -1.52511        -1.91338        -2.06459
H          -1.94337        -0.22472        -1.73139
H           1.40042         0.47223         0.66786
O           1.85428         1.04235        -1.24502
H           2.73643         0.66177        -0.99491
O          -3.14892        -1.53974        -0.78734
H          -3.15841        -2.47980        -0.54853
O           0.32246         2.83053         0.28335
H           1.09749         3.02970        -0.27037
O          -2.58076         1.40745         0.03973
H          -3.21476         0.70120         0.24511
O          -0.22249        -0.59491         2.05326
H          -0.40658        -0.00263         2.79980
O           4.06537        -0.21437        -0.25437
H           3.59329        -0.94105         0.22575
H           4.58241        -0.66959        -0.93594
O           2.33580        -2.10316         0.73128
H           1.89254        -1.82696         1.55107
H           1.70353        -1.79863         0.04207

