%NPROCS=4
# b3lyp/6-31g(d) irc=(calcfc,forward,maxpoints=20)

 ./2/glo_1w_beta_boat2_b3lyp_631Gd_iopt.out

0  1
H          -0.95521        -1.25181        -1.65732
C          -1.08151        -0.84757        -0.63983
C           0.71735        -0.06360         0.98098
C          -0.00884         1.25601        -1.09282
C           1.01112         1.16029         0.07493
O          -1.23924         0.56614        -0.72929
C           0.15489        -1.26235         0.19854
H           1.66373        -0.36521         1.44399
H           0.40933         0.77535        -1.98452
H           0.86093         2.05077         0.70287
H          -0.14256        -2.03056         0.92052
C          -2.37179        -1.41846        -0.06453
H          -3.23065        -0.99341        -0.60398
H          -2.44320        -1.13964         0.99580
O          -0.34509         2.55281        -1.43625
H          -0.60640         3.01351        -0.61881
O          -2.29004        -2.83202        -0.23439
H          -2.96269        -3.24199         0.32392
O           2.32354         1.22421        -0.43263
H           2.81942         0.38621        -0.23403
O          -0.20224         0.22106         2.02743
H          -0.62973         1.08677         1.86705
O           1.20027        -1.78318        -0.64226
H           0.86328        -2.58023        -1.08048
H          -2.52017         2.79700         1.59996
O          -1.72232         2.47562         1.14682
H          -2.00596         1.79189         0.50603
O           3.72855        -1.20264         0.27650
H           2.92157        -1.69645         0.02687
H           3.80348        -1.32416         1.24108

