# b3lyp/6-31g(d) opt freq

glo_2w_beta_ircf_boat1_B3LYP_631Gd

0 1
  1   0.387366     1.577536     1.546057
  6   0.058899     1.128296     0.599304
  6   1.856469    -0.560091     0.256946
  6  -0.543165    -1.337209    -0.123555
  6   0.948257    -1.686327    -0.243215
  8  -0.634627    -0.082639     0.937373
  6   1.325664     0.794406    -0.201317
  1  -1.076111    -2.069367     0.491880
  1   1.163989    -1.835363    -1.310922
  1   1.090928     0.740491    -1.276035
  6  -0.831910     2.131670    -0.143773
  1  -1.703500     2.402366     0.466823
  1  -1.184666     1.671957    -1.076594
  8  -1.119322    -1.031439    -1.287506
  1   1.862862    -0.587384     1.357378
  8  -0.008166     3.277382    -0.406817
  1  -0.492343     3.877124    -0.992726
  8   1.166274    -2.885767     0.490744
  1   2.118204    -3.069166     0.429910
  8   3.158302    -0.809966    -0.253263
  1   3.641845     0.029005    -0.156155
  8   2.349296     1.754561     0.027277
  1   1.975126     2.608635    -0.253839
  8  -3.044952     0.223847     1.226700
  1  -2.136767    -1.066003    -1.183871
  1  -2.032783     0.116278     1.211197
  1  -3.362046    -0.255680     2.006478
  8  -3.524250    -1.002598    -0.830622
  1  -3.469437    -0.457897     0.026989
  1  -3.986344    -0.454111    -1.481281
 
